1_0


 23 24  0  0  0  0  0  0  0  0999 V2000
   11.0849    7.0396  -12.0881 C   0  0  0  0  0  0  0  0  0  0  0  0
    9.8105    6.6907  -12.6330 O   0  0  0  0  0  0  0  0  0  0  0  0
   11.1303    7.3685  -10.8744 N   0  0  0  0  0  0  0  0  0  0  0  0
    9.8426    7.3430  -10.1438 C   0  0  0  0  0  0  0  0  0  0  0  0
   10.1819    6.4872   -8.9033 C   0  0  0  0  0  0  0  0  0  0  0  0
   11.1000    7.2218   -7.9735 C   0  0  0  0  0  0  0  0  0  0  0  0
   11.7617    8.3404   -8.7339 C   0  0  0  0  0  0  0  0  0  0  0  0
   12.2476    7.7997  -10.0743 C   0  0  0  0  0  0  0  0  0  0  0  0
    9.0324    7.3468  -12.5729 H   0  0  0  0  0  0  0  0  0  0  0  0
   10.4704    7.7243   -6.7549 C   0  0  0  0  0  0  0  0  0  0  0  0
    9.2211    8.0135   -6.8676 O   0  0  0  0  0  0  0  0  0  0  0  0
   11.0464    7.9398   -5.4539 C   0  0  0  0  0  0  0  0  0  0  0  0
   11.2846    6.8228   -4.6311 C   0  0  0  0  0  0  0  0  0  0  0  0
   11.8553    6.9361   -3.3884 C   0  0  0  0  0  0  0  0  0  0  0  0
   12.2263    8.1586   -2.8801 C   0  0  0  0  0  0  0  0  0  0  0  0
   12.9551    8.3130   -1.2971 Cl  0  0  0  0  0  0  0  0  0  0  0  0
   12.0079    9.2607   -3.6531 C   0  0  0  0  0  0  0  0  0  0  0  0
   11.4260    9.1422   -4.9176 C   0  0  0  0  0  0  0  0  0  0  0  0
   11.1704   10.6313   -5.7813 Cl  0  0  0  0  0  0  0  0  0  0  0  0
   12.1274    6.9715  -12.9875 O   0  0  0  0  0  0  0  0  0  0  0  0
   12.6212    7.3281  -15.3651 C   0  0  0  0  0  0  0  0  0  0  0  0
   11.8855    6.5806  -14.2846 C   0  0  0  0  0  0  0  0  0  0  0  0
   12.3185    5.0834  -14.4410 C   0  0  0  0  0  0  0  0  0  0  0  0
 21 22  1  0  0  0
 22 23  1  0  0  0
 22 20  1  0  0  0
 20  1  1  0  0  0
  1  2  1  0  0  0
  1  3  2  0  0  0
  3  4  1  0  0  0
  4  5  1  0  0  0
  5  6  1  0  0  0
  6 10  1  0  0  0
 10 11  2  0  0  0
 10 12  1  0  0  0
 12 13  2  0  0  0
 13 14  1  0  0  0
 14 15  2  0  0  0
 15 16  1  0  0  0
 15 17  1  0  0  0
 17 18  2  0  0  0
 18 19  1  0  0  0
  6  7  1  0  0  0
  7  8  1  0  0  0
  8  3  1  0  0  0
 18 12  1  0  0  0
  2  9  1  0  0  0
M  CHG 1   3   1
M  END
> <minimizedAffinity>
-9.45166

$$$$
1_0


 23 24  0  0  0  0  0  0  0  0999 V2000
    8.4986    5.5959  -11.4332 C   0  0  0  0  0  0  0  0  0  0  0  0
    8.9377    6.2106  -12.6465 O   0  0  0  0  0  0  0  0  0  0  0  0
    9.1219    5.8782  -10.3773 N   0  0  0  0  0  0  0  0  0  0  0  0
   10.2430    6.8351  -10.5185 C   0  0  0  0  0  0  0  0  0  0  0  0
    9.9194    7.8875   -9.4349 C   0  0  0  0  0  0  0  0  0  0  0  0
   10.1086    7.3236   -8.0589 C   0  0  0  0  0  0  0  0  0  0  0  0
   10.0992    5.8205   -8.1487 C   0  0  0  0  0  0  0  0  0  0  0  0
    8.9349    5.3911   -9.0348 C   0  0  0  0  0  0  0  0  0  0  0  0
    9.9054    6.1074  -12.9502 H   0  0  0  0  0  0  0  0  0  0  0  0
   11.3011    7.7940   -7.3585 C   0  0  0  0  0  0  0  0  0  0  0  0
   12.3021    8.0752   -8.1174 O   0  0  0  0  0  0  0  0  0  0  0  0
   11.5130    7.9866   -5.9483 C   0  0  0  0  0  0  0  0  0  0  0  0
   11.5530    6.8536   -5.1139 C   0  0  0  0  0  0  0  0  0  0  0  0
   11.7773    6.9453   -3.7632 C   0  0  0  0  0  0  0  0  0  0  0  0
   11.9758    8.1608   -3.1519 C   0  0  0  0  0  0  0  0  0  0  0  0
   12.2630    8.2878   -1.4307 Cl  0  0  0  0  0  0  0  0  0  0  0  0
   11.9422    9.2780   -3.9333 C   0  0  0  0  0  0  0  0  0  0  0  0
   11.7129    9.1814   -5.3079 C   0  0  0  0  0  0  0  0  0  0  0  0
   11.6585   10.6869   -6.1791 Cl  0  0  0  0  0  0  0  0  0  0  0  0
    7.4216    4.7481  -11.5810 O   0  0  0  0  0  0  0  0  0  0  0  0
    7.4922    3.3075  -13.5668 C   0  0  0  0  0  0  0  0  0  0  0  0
    6.9201    4.4940  -12.8372 C   0  0  0  0  0  0  0  0  0  0  0  0
    5.3852    4.2088  -12.7108 C   0  0  0  0  0  0  0  0  0  0  0  0
 21 22  1  0  0  0
 22 23  1  0  0  0
 22 20  1  0  0  0
 20  1  1  0  0  0
  1  2  1  0  0  0
  1  3  2  0  0  0
  3  4  1  0  0  0
  4  5  1  0  0  0
  5  6  1  0  0  0
  6 10  1  0  0  0
 10 11  2  0  0  0
 10 12  1  0  0  0
 12 13  2  0  0  0
 13 14  1  0  0  0
 14 15  2  0  0  0
 15 16  1  0  0  0
 15 17  1  0  0  0
 17 18  2  0  0  0
 18 19  1  0  0  0
  6  7  1  0  0  0
  7  8  1  0  0  0
  8  3  1  0  0  0
 18 12  1  0  0  0
  2  9  1  0  0  0
M  CHG 1   3   1
M  END
> <minimizedAffinity>
-8.77076

$$$$
1_0


 23 24  0  0  0  0  0  0  0  0999 V2000
   11.4843    7.5988   -6.0661 C   0  0  0  0  0  0  0  0  0  0  0  0
   10.5588    6.7392   -5.3974 O   0  0  0  0  0  0  0  0  0  0  0  0
   11.4895    7.5845   -7.3243 N   0  0  0  0  0  0  0  0  0  0  0  0
   10.5150    6.6753   -7.9696 C   0  0  0  0  0  0  0  0  0  0  0  0
    9.7990    7.6114   -8.9684 C   0  0  0  0  0  0  0  0  0  0  0  0
   10.7110    8.0045  -10.0912 C   0  0  0  0  0  0  0  0  0  0  0  0
   12.1340    7.7569   -9.6652 C   0  0  0  0  0  0  0  0  0  0  0  0
   12.3236    8.3019   -8.2538 C   0  0  0  0  0  0  0  0  0  0  0  0
   10.5631    5.7376   -5.5874 H   0  0  0  0  0  0  0  0  0  0  0  0
   10.4315    7.3545  -11.3690 C   0  0  0  0  0  0  0  0  0  0  0  0
   11.4081    7.3609  -12.2076 O   0  0  0  0  0  0  0  0  0  0  0  0
    9.2257    6.7112  -11.8196 C   0  0  0  0  0  0  0  0  0  0  0  0
    9.2035    5.3061  -11.9002 C   0  0  0  0  0  0  0  0  0  0  0  0
    8.0871    4.6118  -12.2935 C   0  0  0  0  0  0  0  0  0  0  0  0
    6.9232    5.2610  -12.6319 C   0  0  0  0  0  0  0  0  0  0  0  0
    5.4946    4.3845  -13.1341 Cl  0  0  0  0  0  0  0  0  0  0  0  0
    6.9129    6.6230  -12.5648 C   0  0  0  0  0  0  0  0  0  0  0  0
    8.0513    7.3270  -12.1647 C   0  0  0  0  0  0  0  0  0  0  0  0
    7.9118    9.0617  -12.1593 Cl  0  0  0  0  0  0  0  0  0  0  0  0
   12.2750    8.3508   -5.2236 O   0  0  0  0  0  0  0  0  0  0  0  0
   12.8294    8.7841   -2.8723 C   0  0  0  0  0  0  0  0  0  0  0  0
   11.8084    8.6945   -3.9754 C   0  0  0  0  0  0  0  0  0  0  0  0
   11.1588   10.1171   -4.0624 C   0  0  0  0  0  0  0  0  0  0  0  0
 21 22  1  0  0  0
 22 23  1  0  0  0
 22 20  1  0  0  0
 20  1  1  0  0  0
  1  2  1  0  0  0
  1  3  2  0  0  0
  3  4  1  0  0  0
  4  5  1  0  0  0
  5  6  1  0  0  0
  6 10  1  0  0  0
 10 11  2  0  0  0
 10 12  1  0  0  0
 12 13  2  0  0  0
 13 14  1  0  0  0
 14 15  2  0  0  0
 15 16  1  0  0  0
 15 17  1  0  0  0
 17 18  2  0  0  0
 18 19  1  0  0  0
  6  7  1  0  0  0
  7  8  1  0  0  0
  8  3  1  0  0  0
 18 12  1  0  0  0
  2  9  1  0  0  0
M  CHG 1   3   1
M  END
> <minimizedAffinity>
-8.22200

$$$$
