6np5_ligand
     RDKit          3D

 33 35  0  0  0  0  0  0  0  0999 V2000
  110.6268  -18.5082   -6.9287 C   0  0  2  0  0  0  0  0  0  0  0  0
  109.8175  -18.3262   -8.1667 C   0  0  1  0  0  0  0  0  0  0  0  0
  108.3211  -18.2703   -7.6573 C   0  0  2  0  0  0  0  0  0  0  0  0
  107.9651  -19.5844   -6.9798 C   0  0  1  0  0  0  0  0  0  0  0  0
  108.8818  -19.6266   -5.7311 C   0  0  1  0  0  0  0  0  0  0  0  0
  108.6404  -20.9345   -5.0389 C   0  0  0  0  0  0  0  0  0  0  0  0
  113.0421  -14.8384   -4.5346 C   0  0  1  0  0  0  0  0  0  0  0  0
  112.4679  -14.5482   -5.8955 C   0  0  1  0  0  0  0  0  0  0  0  0
  111.4754  -15.5037   -6.2649 C   0  0  2  0  0  0  0  0  0  0  0  0
  111.9094  -16.9090   -6.0412 C   0  0  1  0  0  0  0  0  0  0  0  0
  112.4940  -17.2088   -4.7366 C   0  0  2  0  0  0  0  0  0  0  0  0
  113.7208  -16.2707   -4.6052 C   0  0  0  0  0  0  0  0  0  0  0  0
  111.9936  -12.6191   -7.1248 C   0  0  1  0  0  0  0  0  0  0  0  0
  111.4578  -11.2141   -6.7392 C   0  0  1  0  0  0  0  0  0  0  0  0
  110.0272  -11.0735   -7.1347 C   0  0  2  0  0  0  0  0  0  0  0  0
  109.7515  -11.4697   -8.5960 C   0  0  1  0  0  0  0  0  0  0  0  0
  110.2624  -12.9241   -8.8163 C   0  0  1  0  0  0  0  0  0  0  0  0
  110.1157  -13.2812  -10.3670 C   0  0  0  0  0  0  0  0  0  0  0  0
  109.1004  -21.3649   -3.9810 N   0  0  0  0  0  0  0  0  0  0  0  0
  112.9400  -18.5850   -4.6085 N   0  0  0  0  0  0  0  0  0  0  0  0
  114.0046  -13.8679   -4.0751 N   0  0  0  0  0  0  0  0  0  0  0  0
  109.5784   -9.5958   -6.9827 N   0  0  0  0  0  0  0  0  0  0  0  0
  110.2455  -19.5900   -6.0857 O   0  0  0  0  0  0  0  0  0  0  0  0
  107.5538  -18.0624   -8.8998 O   0  0  0  0  0  0  0  0  0  0  0  0
  107.0174  -20.3315   -7.1976 O   0  0  0  0  0  0  0  0  0  0  0  0
  110.7785  -17.3810   -6.1573 O   0  0  0  0  0  0  0  0  0  0  0  0
  111.1056  -15.2406   -7.6270 O   0  0  0  0  0  0  0  0  0  0  0  0
  111.7674  -13.4705   -5.9636 O   0  0  0  0  0  0  0  0  0  0  0  0
  111.6163  -13.1554   -8.3477 O   0  0  0  0  0  0  0  0  0  0  0  0
  111.5514  -10.8754   -5.3027 O   0  0  0  0  0  0  0  0  0  0  0  0
  108.3433  -11.3774   -8.8736 O   0  0  0  0  0  0  0  0  0  0  0  0
  110.1272  -14.5571  -10.6032 O   0  0  0  0  0  0  0  0  0  0  0  0
  110.2178  -17.2476   -9.0108 N   0  0  0  0  0  0  0  0  0  0  0  0
  1  2  1  0
  1 23  1  0
  1 26  1  1
  2  3  1  0
  2 33  1  1
  3  4  1  0
  3 24  1  6
  5  4  1  0
  4 25  1  1
  5  6  1  6
 23  5  1  0
  6 19  1  0
  8  7  1  0
  7 12  1  0
  7 21  1  6
  8  9  1  0
  8 28  1  1
  9 10  1  0
  9 27  1  6
 10 11  1  0
 10 26  1  1
 12 11  1  0
 11 20  1  6
 13 14  1  0
 13 28  1  1
 13 29  1  0
 14 15  1  0
 14 30  1  1
 15 16  1  0
 15 22  1  6
 16 17  1  0
 16 31  1  1
 17 18  1  6
 17 29  1  0
 18 32  1  0
M  CHG  5  19   1  20   1  21   1  22   1  33   1
M  END
$$$$
