6np5_ligand
     RDKit          3D

 33 35  0  0  0  0  0  0  0  0999 V2000
    2.8584   -0.0772    0.1695 C   0  0  1  0  0  0  0  0  0  0  0  0
    2.9669    1.0090    1.2712 C   0  0  1  0  0  0  0  0  0  0  0  0
    4.0775    2.0228    0.9382 C   0  0  2  0  0  0  0  0  0  0  0  0
    5.2388    1.3631    0.1701 C   0  0  1  0  0  0  0  0  0  0  0  0
    5.3068   -0.1534    0.4542 C   0  0  2  0  0  0  0  0  0  0  0  0
    6.5171   -0.8335   -0.2546 C   0  0  0  0  0  0  0  0  0  0  0  0
   -1.5699   -2.9517   -1.2937 C   0  0  2  0  0  0  0  0  0  0  0  0
   -1.6261   -1.5978   -0.5147 C   0  0  1  0  0  0  0  0  0  0  0  0
   -0.3452   -0.7279   -0.7245 C   0  0  2  0  0  0  0  0  0  0  0  0
    1.0206   -1.4997   -0.5767 C   0  0  2  0  0  0  0  0  0  0  0  0
    0.7877   -3.0239   -0.3719 C   0  0  1  0  0  0  0  0  0  0  0  0
   -0.1672   -3.5608   -1.4394 C   0  0  0  0  0  0  0  0  0  0  0  0
   -3.6657   -0.2979   -0.0137 C   0  0  1  0  0  0  0  0  0  0  0  0
   -5.0292    0.0008   -0.7068 C   0  0  1  0  0  0  0  0  0  0  0  0
   -5.9598    0.8402    0.1943 C   0  0  1  0  0  0  0  0  0  0  0  0
   -5.2080    2.0728    0.7224 C   0  0  1  0  0  0  0  0  0  0  0  0
   -3.8813    1.6254    1.3812 C   0  0  2  0  0  0  0  0  0  0  0  0
   -3.0972    2.8278    1.9239 C   0  0  0  0  0  0  0  0  0  0  0  0
    7.8430   -0.4970    0.3361 N   0  0  0  0  0  0  0  0  0  0  0  0
    2.0937   -3.7552   -0.4297 N   0  0  0  0  0  0  0  0  0  0  0  0
   -2.2195   -2.8187   -2.6446 N   0  0  0  0  0  0  0  0  0  0  0  0
   -7.1339    1.3171   -0.6252 N   0  0  0  0  0  0  0  0  0  0  0  0
    4.0770   -0.8399    0.0401 O   0  0  0  0  0  0  0  0  0  0  0  0
    4.5226    2.5650    2.1763 O   0  0  0  0  0  0  0  0  0  0  0  0
    4.9844    1.5179   -1.2266 O   0  0  0  0  0  0  0  0  0  0  0  0
    1.8067   -1.0065    0.5305 O   0  0  0  0  0  0  0  0  0  0  0  0
   -0.3559    0.4062    0.1697 O   0  0  0  0  0  0  0  0  0  0  0  0
   -2.8073   -0.9227   -0.9935 O   0  0  0  0  0  0  0  0  0  0  0  0
   -3.0410    0.8986    0.4513 O   0  0  0  0  0  0  0  0  0  0  0  0
   -4.8106    0.6814   -1.9586 O   0  0  0  0  0  0  0  0  0  0  0  0
   -4.9426    2.9282   -0.4060 O   0  0  0  0  0  0  0  0  0  0  0  0
   -3.9378    3.5624    2.7893 O   0  0  0  0  0  0  0  0  0  0  0  0
    1.6717    1.7298    1.5044 N   0  0  0  0  0  0  0  0  0  0  0  0
  1  2  1  0
  1 23  1  0
  1 26  1  1
  2  3  1  0
  2 33  1  6
  3  4  1  0
  3 24  1  1
  5  4  1  0
  4 25  1  6
  5  6  1  6
 23  5  1  0
  6 19  1  0
  8  7  1  0
  7 12  1  0
  7 21  1  6
  8  9  1  0
  8 28  1  6
  9 10  1  0
  9 27  1  1
 10 11  1  0
 10 26  1  1
 12 11  1  0
 11 20  1  6
 13 14  1  0
 13 28  1  6
 13 29  1  0
 14 15  1  0
 14 30  1  6
 15 16  1  0
 15 22  1  6
 16 17  1  0
 16 31  1  6
 17 18  1  6
 17 29  1  0
 18 32  1  0
M  CHG  5  19   1  20   1  21   1  22   1  33   1
M  END
$$$$
