6np5_ligand
     RDKit          3D

 33 35  0  0  0  0  0  0  0  0999 V2000
  109.6882  -18.4687   -5.3784 C   0  0  1  0  0  0  0  0  0  0  0  0
  108.2212  -18.4043   -4.9745 C   0  0  2  0  0  0  0  0  0  0  0  0
  107.2757  -18.7273   -6.0311 C   0  0  2  0  0  0  0  0  0  0  0  0
  107.5801  -19.0998   -7.3695 C   0  0  1  0  0  0  0  0  0  0  0  0
  109.1149  -18.9227   -7.6976 C   0  0  2  0  0  0  0  0  0  0  0  0
  109.5369  -19.9076   -8.9727 C   0  0  0  0  0  0  0  0  0  0  0  0
  113.1453  -14.3218   -4.8407 C   0  0  1  0  0  0  0  0  0  0  0  0
  112.0031  -14.3598   -5.8103 C   0  0  1  0  0  0  0  0  0  0  0  0
  110.8443  -15.1291   -5.2773 C   0  0  2  0  0  0  0  0  0  0  0  0
  111.1352  -16.4553   -4.6690 C   0  0  2  0  0  0  0  0  0  0  0  0
  112.5345  -16.7296   -4.3958 C   0  0  1  0  0  0  0  0  0  0  0  0
  113.4838  -15.5940   -4.3202 C   0  0  0  0  0  0  0  0  0  0  0  0
  111.0774  -13.3972   -7.6249 C   0  0  1  0  0  0  0  0  0  0  0  0
  111.4163  -12.0930   -8.4405 C   0  0  1  0  0  0  0  0  0  0  0  0
  110.2897  -11.5002   -9.2666 C   0  0  1  0  0  0  0  0  0  0  0  0
  108.9252  -12.0300   -9.1487 C   0  0  1  0  0  0  0  0  0  0  0  0
  108.9239  -13.5279   -8.6879 C   0  0  2  0  0  0  0  0  0  0  0  0
  107.5188  -14.0248   -8.5667 C   0  0  0  0  0  0  0  0  0  0  0  0
  110.7973  -19.6424   -9.4285 N   0  0  0  0  0  0  0  0  0  0  0  0
  112.6031  -17.6117   -3.1483 N   0  0  0  0  0  0  0  0  0  0  0  0
  113.7936  -13.1674   -4.6547 N   0  0  0  0  0  0  0  0  0  0  0  0
  110.2405  -10.0388   -9.4430 N   0  0  0  0  0  0  0  0  0  0  0  0
  109.9793  -19.0167   -6.6761 O   0  0  0  0  0  0  0  0  0  0  0  0
  105.8730  -18.4374   -5.8092 O   0  0  0  0  0  0  0  0  0  0  0  0
  107.0881  -20.4223   -7.6322 O   0  0  0  0  0  0  0  0  0  0  0  0
  110.2814  -17.5567   -5.2934 O   0  0  0  0  0  0  0  0  0  0  0  0
  109.8523  -15.0839   -6.2803 O   0  0  0  0  0  0  0  0  0  0  0  0
  111.4193  -13.2359   -6.2636 O   0  0  0  0  0  0  0  0  0  0  0  0
  109.7666  -13.7963   -7.5331 O   0  0  0  0  0  0  0  0  0  0  0  0
  112.2960  -11.1569   -7.7588 O   0  0  0  0  0  0  0  0  0  0  0  0
  108.1094  -11.2862   -8.2771 O   0  0  0  0  0  0  0  0  0  0  0  0
  107.6305  -15.3184   -9.1327 O   0  0  0  0  0  0  0  0  0  0  0  0
  107.9126  -17.9338   -3.6490 N   0  0  0  0  0  0  0  0  0  0  0  0
  1  2  1  0
  1 23  1  0
  1 26  1  6
  2  3  1  0
  2 33  1  1
  3  4  1  0
  3 24  1  6
  5  4  1  0
  4 25  1  1
  5  6  1  6
 23  5  1  0
  6 19  1  0
  8  7  1  0
  7 12  1  0
  7 21  1  1
  8  9  1  0
  8 28  1  1
  9 10  1  0
  9 27  1  6
 10 11  1  0
 10 26  1  6
 12 11  1  0
 11 20  1  1
 13 14  1  0
 13 28  1  1
 13 29  1  0
 14 15  1  0
 14 30  1  1
 15 16  1  0
 15 22  1  1
 16 17  1  0
 16 31  1  1
 17 18  1  1
 17 29  1  0
 18 32  1  0
M  CHG  5  19   1  20   1  21   1  22   1  33   1
M  END
$$$$
