22_0


 34 36  0  0  0  0  0  0  0  0999 V2000
    8.2111    4.6334  -12.7606 C   0  0  0  0  0  0  0  0  0  0  0  0
    8.3284    5.2117  -11.5516 N   0  0  0  0  0  0  0  0  0  0  0  0
    9.4349    5.9432  -11.4779 N   0  0  0  0  0  0  0  0  0  0  0  0
   10.0570    5.8408  -12.6692 C   0  0  0  0  0  0  0  0  0  0  0  0
    9.3129    5.0232  -13.5000 C   0  0  0  0  0  0  0  0  0  0  0  0
    9.9026    6.7065  -10.3572 C   0  0  0  0  0  0  0  0  0  0  0  0
   10.3922    8.0043  -10.5404 C   0  0  0  0  0  0  0  0  0  0  0  0
   10.8168    8.6550   -9.4089 C   0  0  0  0  0  0  0  0  0  0  0  0
   10.7747    8.0917   -8.1660 C   0  0  0  0  0  0  0  0  0  0  0  0
   10.2837    6.8027   -8.0157 C   0  0  0  0  0  0  0  0  0  0  0  0
    9.8442    6.1084   -9.1316 C   0  0  0  0  0  0  0  0  0  0  0  0
    9.2323    4.4810   -8.8883 Cl  0  0  0  0  0  0  0  0  0  0  0  0
   11.2471    8.8411   -6.9752 C   0  0  0  0  0  0  0  0  0  0  0  0
   10.4795    9.9524   -6.7167 F   0  0  0  0  0  0  0  0  0  0  0  0
   11.2911    7.9904   -5.8918 F   0  0  0  0  0  0  0  0  0  0  0  0
   12.5459    9.2357   -7.2362 F   0  0  0  0  0  0  0  0  0  0  0  0
    5.0262    3.5881  -13.3109 H   0  0  0  0  0  0  0  0  0  0  0  0
    5.8505    4.2090  -13.3102 O   0  0  0  0  0  0  0  0  0  0  0  0
    7.1384    3.7580  -13.2310 C   0  0  0  0  0  0  0  0  0  0  0  0
    7.4208    2.5732  -13.5647 N   0  0  0  0  0  0  0  0  0  0  0  0
    6.6127    1.5206  -14.0461 C   0  0  0  0  0  0  0  0  0  0  0  0
    7.4085    0.2187  -13.8835 C   0  0  0  0  0  0  0  0  0  0  0  0
    6.4141    1.6901  -15.5372 C   0  0  0  0  0  0  0  0  0  0  0  0
    5.2836    1.3728  -13.3675 C   0  0  0  0  0  0  0  0  0  0  0  0
   11.3533    6.5344  -12.9750 C   0  0  0  0  0  0  0  0  0  0  0  0
   11.9897    5.8470  -14.0591 N   0  0  0  0  0  0  0  0  0  0  0  0
   12.6011    6.4592  -14.9949 C   0  0  0  0  0  0  0  0  0  0  0  0
   12.7082    7.8572  -15.0515 O   0  0  0  0  0  0  0  0  0  0  0  0
   11.8941    8.3772  -14.6934 H   0  0  0  0  0  0  0  0  0  0  0  0
   13.2097    5.6279  -16.0463 C   0  0  0  0  0  0  0  0  0  0  0  0
   12.6388    4.5844  -16.6048 O   0  0  0  0  0  0  0  0  0  0  0  0
   13.4435    4.0576  -17.5103 C   0  0  0  0  0  0  0  0  0  0  0  0
   14.5810    4.7745  -17.5516 N   0  0  0  0  0  0  0  0  0  0  0  0
   14.4462    5.7617  -16.6382 C   0  0  0  0  0  0  0  0  0  0  0  0
 17 18  1  0  0  0
 18 19  1  0  0  0
 19 20  2  0  0  0
 20 21  1  0  0  0
 21 22  1  0  0  0
 21 23  1  0  0  0
 21 24  1  0  0  0
 19  1  1  0  0  0
  1  2  2  0  0  0
  2  3  1  0  0  0
  3  6  1  0  0  0
  6  7  2  0  0  0
  7  8  1  0  0  0
  8  9  2  0  0  0
  9 13  1  0  0  0
 13 14  1  0  0  0
 13 15  1  0  0  0
 13 16  1  0  0  0
  9 10  1  0  0  0
 10 11  2  0  0  0
 11 12  1  0  0  0
  3  4  1  0  0  0
  4 25  1  0  0  0
 25 26  1  0  0  0
 26 27  2  0  0  0
 27 28  1  0  0  0
 28 29  1  0  0  0
 27 30  1  0  0  0
 30 31  1  0  0  0
 31 32  1  0  0  0
 32 33  2  0  0  0
 33 34  1  0  0  0
  4  5  2  0  0  0
  5  1  1  0  0  0
 11  6  1  0  0  0
 34 30  2  0  0  0
M  END
> <minimizedAffinity>
-9.57030

$$$$
22_0


 34 36  0  0  0  0  0  0  0  0999 V2000
    9.1663    5.3950  -11.6301 C   0  0  0  0  0  0  0  0  0  0  0  0
    8.3149    4.3595  -11.7420 N   0  0  0  0  0  0  0  0  0  0  0  0
    8.2608    3.9194  -12.9943 N   0  0  0  0  0  0  0  0  0  0  0  0
    9.0984    4.6866  -13.7199 C   0  0  0  0  0  0  0  0  0  0  0  0
    9.6848    5.6257  -12.8913 C   0  0  0  0  0  0  0  0  0  0  0  0
    7.4707    2.8364  -13.5046 C   0  0  0  0  0  0  0  0  0  0  0  0
    8.0857    1.7443  -14.1266 C   0  0  0  0  0  0  0  0  0  0  0  0
    7.2471    0.7579  -14.5825 C   0  0  0  0  0  0  0  0  0  0  0  0
    5.8896    0.8146  -14.4495 C   0  0  0  0  0  0  0  0  0  0  0  0
    5.3085    1.9106  -13.8280 C   0  0  0  0  0  0  0  0  0  0  0  0
    6.1176    2.9303  -13.3524 C   0  0  0  0  0  0  0  0  0  0  0  0
    5.3338    4.2948  -12.5742 Cl  0  0  0  0  0  0  0  0  0  0  0  0
    5.0291   -0.2811  -14.9612 C   0  0  0  0  0  0  0  0  0  0  0  0
    4.7846   -0.1693  -16.3099 F   0  0  0  0  0  0  0  0  0  0  0  0
    5.6040   -1.4938  -14.6475 F   0  0  0  0  0  0  0  0  0  0  0  0
    3.8319   -0.2080  -14.2740 F   0  0  0  0  0  0  0  0  0  0  0  0
    8.6872    6.8053   -8.5772 H   0  0  0  0  0  0  0  0  0  0  0  0
    8.7056    6.0816   -9.3126 O   0  0  0  0  0  0  0  0  0  0  0  0
    9.4996    6.1501  -10.4230 C   0  0  0  0  0  0  0  0  0  0  0  0
   10.5372    6.8702  -10.4216 N   0  0  0  0  0  0  0  0  0  0  0  0
   11.1008    7.6942   -9.4236 C   0  0  0  0  0  0  0  0  0  0  0  0
   10.2833    8.9922   -9.3835 C   0  0  0  0  0  0  0  0  0  0  0  0
   12.4939    8.1061   -9.8491 C   0  0  0  0  0  0  0  0  0  0  0  0
   11.1425    7.0964   -8.0489 C   0  0  0  0  0  0  0  0  0  0  0  0
    9.3112    4.4936  -15.1938 C   0  0  0  0  0  0  0  0  0  0  0  0
   10.5301    5.1492  -15.5647 N   0  0  0  0  0  0  0  0  0  0  0  0
   11.5843    4.5079  -15.8835 C   0  0  0  0  0  0  0  0  0  0  0  0
   11.6505    3.1063  -15.9013 O   0  0  0  0  0  0  0  0  0  0  0  0
   11.0897    2.6286  -15.1810 H   0  0  0  0  0  0  0  0  0  0  0  0
   12.7660    5.3085  -16.2434 C   0  0  0  0  0  0  0  0  0  0  0  0
   13.9719    4.8242  -16.4377 O   0  0  0  0  0  0  0  0  0  0  0  0
   14.8079    5.7991  -16.7467 C   0  0  0  0  0  0  0  0  0  0  0  0
   14.1342    6.9635  -16.7568 N   0  0  0  0  0  0  0  0  0  0  0  0
   12.8531    6.6687  -16.4427 C   0  0  0  0  0  0  0  0  0  0  0  0
 17 18  1  0  0  0
 18 19  1  0  0  0
 19 20  2  0  0  0
 20 21  1  0  0  0
 21 22  1  0  0  0
 21 23  1  0  0  0
 21 24  1  0  0  0
 19  1  1  0  0  0
  1  2  2  0  0  0
  2  3  1  0  0  0
  3  6  1  0  0  0
  6  7  2  0  0  0
  7  8  1  0  0  0
  8  9  2  0  0  0
  9 13  1  0  0  0
 13 14  1  0  0  0
 13 15  1  0  0  0
 13 16  1  0  0  0
  9 10  1  0  0  0
 10 11  2  0  0  0
 11 12  1  0  0  0
  3  4  1  0  0  0
  4 25  1  0  0  0
 25 26  1  0  0  0
 26 27  2  0  0  0
 27 28  1  0  0  0
 28 29  1  0  0  0
 27 30  1  0  0  0
 30 31  1  0  0  0
 31 32  1  0  0  0
 32 33  2  0  0  0
 33 34  1  0  0  0
  4  5  2  0  0  0
  5  1  1  0  0  0
 11  6  1  0  0  0
 34 30  2  0  0  0
M  END
> <minimizedAffinity>
-9.09473

$$$$
22_0


 34 36  0  0  0  0  0  0  0  0999 V2000
    8.0642    4.3831  -13.5316 C   0  0  0  0  0  0  0  0  0  0  0  0
    8.7420    3.9809  -14.6218 N   0  0  0  0  0  0  0  0  0  0  0  0
    8.3545    2.7692  -15.0045 N   0  0  0  0  0  0  0  0  0  0  0  0
    7.3988    2.3688  -14.1426 C   0  0  0  0  0  0  0  0  0  0  0  0
    7.1918    3.3617  -13.2027 C   0  0  0  0  0  0  0  0  0  0  0  0
    8.8430    2.0087  -16.1184 C   0  0  0  0  0  0  0  0  0  0  0  0
    8.3377    2.2329  -17.4036 C   0  0  0  0  0  0  0  0  0  0  0  0
    8.8665    1.4567  -18.4045 C   0  0  0  0  0  0  0  0  0  0  0  0
    9.8297    0.5143  -18.1856 C   0  0  0  0  0  0  0  0  0  0  0  0
   10.3114    0.3146  -16.8998 C   0  0  0  0  0  0  0  0  0  0  0  0
    9.8055    1.0764  -15.8585 C   0  0  0  0  0  0  0  0  0  0  0  0
   10.4478    0.7854  -14.2509 Cl  0  0  0  0  0  0  0  0  0  0  0  0
   10.3671   -0.2981  -19.3055 C   0  0  0  0  0  0  0  0  0  0  0  0
   11.2340    0.4141  -20.1007 F   0  0  0  0  0  0  0  0  0  0  0  0
   10.9593   -1.4345  -18.7983 F   0  0  0  0  0  0  0  0  0  0  0  0
    9.2852   -0.7060  -20.0631 F   0  0  0  0  0  0  0  0  0  0  0  0
    7.2377    7.5113  -12.4971 H   0  0  0  0  0  0  0  0  0  0  0  0
    7.1403    6.5017  -12.6875 O   0  0  0  0  0  0  0  0  0  0  0  0
    8.2011    5.6487  -12.8121 C   0  0  0  0  0  0  0  0  0  0  0  0
    9.3194    5.9435  -12.3047 N   0  0  0  0  0  0  0  0  0  0  0  0
    9.7431    7.0713  -11.5691 C   0  0  0  0  0  0  0  0  0  0  0  0
   11.2154    7.3229  -11.9208 C   0  0  0  0  0  0  0  0  0  0  0  0
    9.7312    6.7340  -10.0935 C   0  0  0  0  0  0  0  0  0  0  0  0
    8.9580    8.3257  -11.8126 C   0  0  0  0  0  0  0  0  0  0  0  0
    6.7101    1.0386  -14.2484 C   0  0  0  0  0  0  0  0  0  0  0  0
    6.0489    0.9710  -15.5178 N   0  0  0  0  0  0  0  0  0  0  0  0
    5.7971   -0.1334  -16.1020 C   0  0  0  0  0  0  0  0  0  0  0  0
    6.1418   -1.3810  -15.5600 O   0  0  0  0  0  0  0  0  0  0  0  0
    7.0192   -1.4007  -15.0203 H   0  0  0  0  0  0  0  0  0  0  0  0
    5.1124   -0.0561  -17.4028 C   0  0  0  0  0  0  0  0  0  0  0  0
    5.1992    0.9532  -18.2397 O   0  0  0  0  0  0  0  0  0  0  0  0
    4.4683    0.7157  -19.3141 C   0  0  0  0  0  0  0  0  0  0  0  0
    3.8802   -0.4871  -19.1834 N   0  0  0  0  0  0  0  0  0  0  0  0
    4.2764   -0.9806  -17.9891 C   0  0  0  0  0  0  0  0  0  0  0  0
 17 18  1  0  0  0
 18 19  1  0  0  0
 19 20  2  0  0  0
 20 21  1  0  0  0
 21 22  1  0  0  0
 21 23  1  0  0  0
 21 24  1  0  0  0
 19  1  1  0  0  0
  1  2  2  0  0  0
  2  3  1  0  0  0
  3  6  1  0  0  0
  6  7  2  0  0  0
  7  8  1  0  0  0
  8  9  2  0  0  0
  9 13  1  0  0  0
 13 14  1  0  0  0
 13 15  1  0  0  0
 13 16  1  0  0  0
  9 10  1  0  0  0
 10 11  2  0  0  0
 11 12  1  0  0  0
  3  4  1  0  0  0
  4 25  1  0  0  0
 25 26  1  0  0  0
 26 27  2  0  0  0
 27 28  1  0  0  0
 28 29  1  0  0  0
 27 30  1  0  0  0
 30 31  1  0  0  0
 31 32  1  0  0  0
 32 33  2  0  0  0
 33 34  1  0  0  0
  4  5  2  0  0  0
  5  1  1  0  0  0
 11  6  1  0  0  0
 34 30  2  0  0  0
M  END
> <minimizedAffinity>
-7.56676

$$$$
