22_1


 29 33  0  0  0  0  0  0  0  0999 V2000
    9.4950    6.2532  -12.1941 C   0  0  0  0  0  0  0  0  0  0  0  0
   10.5501    5.5566  -12.7678 C   0  0  0  0  0  0  0  0  0  0  0  0
   10.3125    4.3334  -13.3821 C   0  0  0  0  0  0  0  0  0  0  0  0
    9.0467    3.8357  -13.4121 N   0  0  0  0  0  0  0  0  0  0  0  0
    8.5277    2.7086  -13.9217 N   0  0  0  0  0  0  0  0  0  0  0  0
    7.2040    2.6857  -13.6851 C   0  0  0  0  0  0  0  0  0  0  0  0
    6.9261    3.8228  -13.0202 N   0  0  0  0  0  0  0  0  0  0  0  0
    8.0529    4.5473  -12.8419 C   0  0  0  0  0  0  0  0  0  0  0  0
    8.2556    5.7364  -12.2394 N   0  0  0  0  0  0  0  0  0  0  0  0
    6.2120    1.6771  -14.0418 C   0  0  0  0  0  0  0  0  0  0  0  0
    5.1338    1.2876  -13.2550 C   0  0  0  0  0  0  0  0  0  0  0  0
    4.4544    0.3112  -13.9738 C   0  0  0  0  0  0  0  0  0  0  0  0
    5.1529    0.1570  -15.1590 C   0  0  0  0  0  0  0  0  0  0  0  0
    6.1809    0.9886  -15.1444 O   0  0  0  0  0  0  0  0  0  0  0  0
    9.7000    7.5688  -11.5240 C   0  0  0  0  0  0  0  0  0  0  0  0
   11.5514    7.3677   -7.7362 C   0  0  0  0  0  0  0  0  0  0  0  0
   12.0586    8.2254   -8.7005 C   0  0  0  0  0  0  0  0  0  0  0  0
   11.4100    8.2437   -9.9132 C   0  0  0  0  0  0  0  0  0  0  0  0
   10.2954    7.4443  -10.1748 C   0  0  0  0  0  0  0  0  0  0  0  0
    9.8099    6.5994   -9.1994 C   0  0  0  0  0  0  0  0  0  0  0  0
   10.4494    6.5703   -7.9798 C   0  0  0  0  0  0  0  0  0  0  0  0
   11.4031    3.5448  -14.0121 C   0  0  0  0  0  0  0  0  0  0  0  0
   11.4221    3.6972  -15.4565 N   0  0  0  0  0  0  0  0  0  0  0  0
   11.4087    2.3988  -16.0547 C   0  0  0  0  0  0  0  0  0  0  0  0
   11.8582    2.3584  -17.4836 C   0  0  0  0  0  0  0  0  0  0  0  0
   12.1386    3.6171  -18.0037 O   0  0  0  0  0  0  0  0  0  0  0  0
   13.1264    4.1603  -17.1703 C   0  0  0  0  0  0  0  0  0  0  0  0
   12.4282    4.5862  -15.9070 C   0  0  0  0  0  0  0  0  0  0  0  0
   10.4937    4.1518  -15.7030 H   0  0  0  0  0  0  0  0  0  0  0  0
 16 17  2  0  0  0
 17 18  1  0  0  0
 18 19  2  0  0  0
 19 15  1  0  0  0
 15  1  1  0  0  0
  1  2  1  0  0  0
  2  3  2  0  0  0
  3 22  1  0  0  0
 22 23  1  0  0  0
 23 24  1  0  0  0
 24 25  1  0  0  0
 25 26  1  0  0  0
 26 27  1  0  0  0
 27 28  1  0  0  0
  3  4  1  0  0  0
  4  5  1  0  0  0
  5  6  2  0  0  0
  6 10  1  0  0  0
 10 11  2  0  0  0
 11 12  1  0  0  0
 12 13  2  0  0  0
 13 14  1  0  0  0
  6  7  1  0  0  0
  7  8  2  0  0  0
  8  9  1  0  0  0
 19 20  1  0  0  0
 20 21  2  0  0  0
 21 16  1  0  0  0
  9  1  2  0  0  0
 28 23  1  0  0  0
  8  4  1  0  0  0
 14 10  1  0  0  0
 23 29  1  0  0  0
M  CHG 1  23   1
M  END
> <minimizedAffinity>
-9.13184

$$$$
22_1


 29 33  0  0  0  0  0  0  0  0999 V2000
   10.8537    7.8150  -10.5252 C   0  0  0  0  0  0  0  0  0  0  0  0
   11.6719    7.3819  -11.5599 C   0  0  0  0  0  0  0  0  0  0  0  0
   11.2179    6.3973  -12.4286 C   0  0  0  0  0  0  0  0  0  0  0  0
    9.9758    5.8715  -12.2516 N   0  0  0  0  0  0  0  0  0  0  0  0
    9.2860    4.9321  -12.9159 N   0  0  0  0  0  0  0  0  0  0  0  0
    8.0842    4.7723  -12.3337 C   0  0  0  0  0  0  0  0  0  0  0  0
    8.0552    5.6341  -11.3000 N   0  0  0  0  0  0  0  0  0  0  0  0
    9.2159    6.3230  -11.2327 C   0  0  0  0  0  0  0  0  0  0  0  0
    9.6317    7.2770  -10.3755 N   0  0  0  0  0  0  0  0  0  0  0  0
    6.9900    3.8751  -12.6888 C   0  0  0  0  0  0  0  0  0  0  0  0
    5.6802    3.9750  -12.2328 C   0  0  0  0  0  0  0  0  0  0  0  0
    4.9792    2.9262  -12.8162 C   0  0  0  0  0  0  0  0  0  0  0  0
    5.8968    2.2433  -13.5959 C   0  0  0  0  0  0  0  0  0  0  0  0
    7.0673    2.8480  -13.4825 O   0  0  0  0  0  0  0  0  0  0  0  0
   11.2962    8.8685   -9.5680 C   0  0  0  0  0  0  0  0  0  0  0  0
   11.0221    7.8560   -5.4796 C   0  0  0  0  0  0  0  0  0  0  0  0
   10.8812    9.1800   -5.8670 C   0  0  0  0  0  0  0  0  0  0  0  0
   10.9810    9.4433   -7.2133 C   0  0  0  0  0  0  0  0  0  0  0  0
   11.2124    8.4380   -8.1545 C   0  0  0  0  0  0  0  0  0  0  0  0
   11.3490    7.1289   -7.7442 C   0  0  0  0  0  0  0  0  0  0  0  0
   11.2514    6.8501   -6.3989 C   0  0  0  0  0  0  0  0  0  0  0  0
   12.0502    5.8959  -13.5528 C   0  0  0  0  0  0  0  0  0  0  0  0
   11.7388    6.5662  -14.8032 N   0  0  0  0  0  0  0  0  0  0  0  0
   11.4172    5.5783  -15.7853 C   0  0  0  0  0  0  0  0  0  0  0  0
   11.4994    6.0505  -17.2051 C   0  0  0  0  0  0  0  0  0  0  0  0
   11.8026    7.4032  -17.3139 O   0  0  0  0  0  0  0  0  0  0  0  0
   13.0229    7.5732  -16.6452 C   0  0  0  0  0  0  0  0  0  0  0  0
   12.7103    7.5277  -15.1739 C   0  0  0  0  0  0  0  0  0  0  0  0
   10.8434    7.1073  -14.6163 H   0  0  0  0  0  0  0  0  0  0  0  0
 16 17  2  0  0  0
 17 18  1  0  0  0
 18 19  2  0  0  0
 19 15  1  0  0  0
 15  1  1  0  0  0
  1  2  1  0  0  0
  2  3  2  0  0  0
  3 22  1  0  0  0
 22 23  1  0  0  0
 23 24  1  0  0  0
 24 25  1  0  0  0
 25 26  1  0  0  0
 26 27  1  0  0  0
 27 28  1  0  0  0
  3  4  1  0  0  0
  4  5  1  0  0  0
  5  6  2  0  0  0
  6 10  1  0  0  0
 10 11  2  0  0  0
 11 12  1  0  0  0
 12 13  2  0  0  0
 13 14  1  0  0  0
  6  7  1  0  0  0
  7  8  2  0  0  0
  8  9  1  0  0  0
 19 20  1  0  0  0
 20 21  2  0  0  0
 21 16  1  0  0  0
  9  1  2  0  0  0
 28 23  1  0  0  0
  8  4  1  0  0  0
 14 10  1  0  0  0
 23 29  1  0  0  0
M  CHG 1  23   1
M  END
> <minimizedAffinity>
-9.11656

$$$$
22_1


 29 33  0  0  0  0  0  0  0  0999 V2000
   10.3945    6.5723  -12.4194 C   0  0  0  0  0  0  0  0  0  0  0  0
   10.2715    5.2229  -12.7223 C   0  0  0  0  0  0  0  0  0  0  0  0
   11.0260    4.6789  -13.7542 C   0  0  0  0  0  0  0  0  0  0  0  0
   11.8757    5.4785  -14.4538 N   0  0  0  0  0  0  0  0  0  0  0  0
   12.7102    5.2394  -15.4764 N   0  0  0  0  0  0  0  0  0  0  0  0
   13.3368    6.3813  -15.8114 C   0  0  0  0  0  0  0  0  0  0  0  0
   12.8669    7.3225  -14.9714 N   0  0  0  0  0  0  0  0  0  0  0  0
   11.9623    6.7837  -14.1243 C   0  0  0  0  0  0  0  0  0  0  0  0
   11.2420    7.3371  -13.1280 N   0  0  0  0  0  0  0  0  0  0  0  0
   14.3283    6.6279  -16.8528 C   0  0  0  0  0  0  0  0  0  0  0  0
   14.1189    7.3665  -18.0120 C   0  0  0  0  0  0  0  0  0  0  0  0
   15.3181    7.3453  -18.7143 C   0  0  0  0  0  0  0  0  0  0  0  0
   16.1940    6.5963  -17.9476 C   0  0  0  0  0  0  0  0  0  0  0  0
   15.5556    6.1984  -16.8601 O   0  0  0  0  0  0  0  0  0  0  0  0
    9.6066    7.2016  -11.3217 C   0  0  0  0  0  0  0  0  0  0  0  0
   11.6567    7.4251   -7.6389 C   0  0  0  0  0  0  0  0  0  0  0  0
   10.5870    6.5531   -7.7742 C   0  0  0  0  0  0  0  0  0  0  0  0
    9.9619    6.5281   -8.9990 C   0  0  0  0  0  0  0  0  0  0  0  0
   10.3727    7.3346  -10.0624 C   0  0  0  0  0  0  0  0  0  0  0  0
   11.4392    8.1936   -9.9030 C   0  0  0  0  0  0  0  0  0  0  0  0
   12.0751    8.2296   -8.6817 C   0  0  0  0  0  0  0  0  0  0  0  0
   10.9350    3.2421  -14.1218 C   0  0  0  0  0  0  0  0  0  0  0  0
   10.5423    3.0576  -15.5080 N   0  0  0  0  0  0  0  0  0  0  0  0
    9.1207    2.9179  -15.5671 C   0  0  0  0  0  0  0  0  0  0  0  0
    8.6001    2.2968  -16.8275 C   0  0  0  0  0  0  0  0  0  0  0  0
    9.5981    2.0341  -17.7595 O   0  0  0  0  0  0  0  0  0  0  0  0
   10.5102    1.1902  -17.1106 C   0  0  0  0  0  0  0  0  0  0  0  0
   11.2996    2.0614  -16.1711 C   0  0  0  0  0  0  0  0  0  0  0  0
   10.7747    3.9757  -15.9902 H   0  0  0  0  0  0  0  0  0  0  0  0
 16 17  2  0  0  0
 17 18  1  0  0  0
 18 19  2  0  0  0
 19 15  1  0  0  0
 15  1  1  0  0  0
  1  2  1  0  0  0
  2  3  2  0  0  0
  3 22  1  0  0  0
 22 23  1  0  0  0
 23 24  1  0  0  0
 24 25  1  0  0  0
 25 26  1  0  0  0
 26 27  1  0  0  0
 27 28  1  0  0  0
  3  4  1  0  0  0
  4  5  1  0  0  0
  5  6  2  0  0  0
  6 10  1  0  0  0
 10 11  2  0  0  0
 11 12  1  0  0  0
 12 13  2  0  0  0
 13 14  1  0  0  0
  6  7  1  0  0  0
  7  8  2  0  0  0
  8  9  1  0  0  0
 19 20  1  0  0  0
 20 21  2  0  0  0
 21 16  1  0  0  0
  9  1  2  0  0  0
 28 23  1  0  0  0
  8  4  1  0  0  0
 14 10  1  0  0  0
 23 29  1  0  0  0
M  CHG 1  23   1
M  END
> <minimizedAffinity>
-8.10933

$$$$
22_1


 29 33  0  0  0  0  0  0  0  0999 V2000
   10.5076    5.4169  -13.5700 C   0  0  0  0  0  0  0  0  0  0  0  0
   10.0686    4.5256  -14.5398 C   0  0  0  0  0  0  0  0  0  0  0  0
   10.7621    4.4185  -15.7388 C   0  0  0  0  0  0  0  0  0  0  0  0
   11.8632    5.1903  -15.9449 N   0  0  0  0  0  0  0  0  0  0  0  0
   12.7124    5.3010  -16.9774 N   0  0  0  0  0  0  0  0  0  0  0  0
   13.6497    6.2191  -16.6818 C   0  0  0  0  0  0  0  0  0  0  0  0
   13.3544    6.6665  -15.4470 N   0  0  0  0  0  0  0  0  0  0  0  0
   12.2529    6.0423  -14.9744 C   0  0  0  0  0  0  0  0  0  0  0  0
   11.5985    6.1661  -13.8021 N   0  0  0  0  0  0  0  0  0  0  0  0
   14.7791    6.6860  -17.4787 C   0  0  0  0  0  0  0  0  0  0  0  0
   14.9125    7.9563  -18.0281 C   0  0  0  0  0  0  0  0  0  0  0  0
   16.1281    7.9680  -18.7019 C   0  0  0  0  0  0  0  0  0  0  0  0
   16.6709    6.7065  -18.5280 C   0  0  0  0  0  0  0  0  0  0  0  0
   15.8313    5.9920  -17.7978 O   0  0  0  0  0  0  0  0  0  0  0  0
    9.7973    5.5674  -12.2683 C   0  0  0  0  0  0  0  0  0  0  0  0
    6.8512    8.5895  -12.3250 C   0  0  0  0  0  0  0  0  0  0  0  0
    6.4978    7.2843  -12.6320 C   0  0  0  0  0  0  0  0  0  0  0  0
    7.5040    6.3473  -12.5955 C   0  0  0  0  0  0  0  0  0  0  0  0
    8.8202    6.6790  -12.2675 C   0  0  0  0  0  0  0  0  0  0  0  0
    9.1466    7.9841  -11.9659 C   0  0  0  0  0  0  0  0  0  0  0  0
    8.1492    8.9335  -11.9984 C   0  0  0  0  0  0  0  0  0  0  0  0
   10.3378    3.4819  -16.8116 C   0  0  0  0  0  0  0  0  0  0  0  0
    9.7376    2.2731  -16.2744 N   0  0  0  0  0  0  0  0  0  0  0  0
   10.6973    1.2156  -16.3421 C   0  0  0  0  0  0  0  0  0  0  0  0
   10.1224   -0.1647  -16.2440 C   0  0  0  0  0  0  0  0  0  0  0  0
    8.7493   -0.1700  -16.0243 O   0  0  0  0  0  0  0  0  0  0  0  0
    8.1914    0.5432  -17.0946 C   0  0  0  0  0  0  0  0  0  0  0  0
    8.4602    1.9983  -16.8206 C   0  0  0  0  0  0  0  0  0  0  0  0
    9.5814    2.4721  -15.2422 H   0  0  0  0  0  0  0  0  0  0  0  0
 16 17  2  0  0  0
 17 18  1  0  0  0
 18 19  2  0  0  0
 19 15  1  0  0  0
 15  1  1  0  0  0
  1  2  1  0  0  0
  2  3  2  0  0  0
  3 22  1  0  0  0
 22 23  1  0  0  0
 23 24  1  0  0  0
 24 25  1  0  0  0
 25 26  1  0  0  0
 26 27  1  0  0  0
 27 28  1  0  0  0
  3  4  1  0  0  0
  4  5  1  0  0  0
  5  6  2  0  0  0
  6 10  1  0  0  0
 10 11  2  0  0  0
 11 12  1  0  0  0
 12 13  2  0  0  0
 13 14  1  0  0  0
  6  7  1  0  0  0
  7  8  2  0  0  0
  8  9  1  0  0  0
 19 20  1  0  0  0
 20 21  2  0  0  0
 21 16  1  0  0  0
  9  1  2  0  0  0
 28 23  1  0  0  0
  8  4  1  0  0  0
 14 10  1  0  0  0
 23 29  1  0  0  0
M  CHG 1  23   1
M  END
> <minimizedAffinity>
-7.45106

$$$$
22_1


 29 33  0  0  0  0  0  0  0  0999 V2000
   10.7865    3.9605  -14.3871 C   0  0  0  0  0  0  0  0  0  0  0  0
   10.5818    3.2743  -15.5765 C   0  0  0  0  0  0  0  0  0  0  0  0
   11.2926    3.6411  -16.7124 C   0  0  0  0  0  0  0  0  0  0  0  0
   12.1804    4.6695  -16.6417 N   0  0  0  0  0  0  0  0  0  0  0  0
   12.9890    5.2332  -17.5515 N   0  0  0  0  0  0  0  0  0  0  0  0
   13.6779    6.2321  -16.9715 C   0  0  0  0  0  0  0  0  0  0  0  0
   13.2724    6.2661  -15.6882 N   0  0  0  0  0  0  0  0  0  0  0  0
   12.3466    5.3074  -15.4649 C   0  0  0  0  0  0  0  0  0  0  0  0
   11.6700    4.9720  -14.3479 N   0  0  0  0  0  0  0  0  0  0  0  0
   14.6715    7.1332  -17.5453 C   0  0  0  0  0  0  0  0  0  0  0  0
   14.4654    8.4719  -17.8593 C   0  0  0  0  0  0  0  0  0  0  0  0
   15.6656    8.9440  -18.3774 C   0  0  0  0  0  0  0  0  0  0  0  0
   16.5388    7.8702  -18.3520 C   0  0  0  0  0  0  0  0  0  0  0  0
   15.8979    6.8276  -17.8510 O   0  0  0  0  0  0  0  0  0  0  0  0
   10.0480    3.6040  -13.1424 C   0  0  0  0  0  0  0  0  0  0  0  0
    6.5536    5.8890  -12.5228 C   0  0  0  0  0  0  0  0  0  0  0  0
    6.4450    4.5821  -12.9734 C   0  0  0  0  0  0  0  0  0  0  0  0
    7.6207    3.8920  -13.1550 C   0  0  0  0  0  0  0  0  0  0  0  0
    8.8686    4.4655  -12.9026 C   0  0  0  0  0  0  0  0  0  0  0  0
    8.9504    5.7670  -12.4550 C   0  0  0  0  0  0  0  0  0  0  0  0
    7.7811    6.4706  -12.2685 C   0  0  0  0  0  0  0  0  0  0  0  0
   11.1140    2.9423  -18.0116 C   0  0  0  0  0  0  0  0  0  0  0  0
   11.9291    1.7435  -18.1027 N   0  0  0  0  0  0  0  0  0  0  0  0
   12.8127    1.8735  -19.2191 C   0  0  0  0  0  0  0  0  0  0  0  0
   13.3983    0.5857  -19.7129 C   0  0  0  0  0  0  0  0  0  0  0  0
   13.0346   -0.5115  -18.9400 O   0  0  0  0  0  0  0  0  0  0  0  0
   11.6332   -0.5432  -18.9625 C   0  0  0  0  0  0  0  0  0  0  0  0
   11.1694    0.5501  -18.0384 C   0  0  0  0  0  0  0  0  0  0  0  0
   12.5399    1.7526  -17.2330 H   0  0  0  0  0  0  0  0  0  0  0  0
 16 17  2  0  0  0
 17 18  1  0  0  0
 18 19  2  0  0  0
 19 15  1  0  0  0
 15  1  1  0  0  0
  1  2  1  0  0  0
  2  3  2  0  0  0
  3 22  1  0  0  0
 22 23  1  0  0  0
 23 24  1  0  0  0
 24 25  1  0  0  0
 25 26  1  0  0  0
 26 27  1  0  0  0
 27 28  1  0  0  0
  3  4  1  0  0  0
  4  5  1  0  0  0
  5  6  2  0  0  0
  6 10  1  0  0  0
 10 11  2  0  0  0
 11 12  1  0  0  0
 12 13  2  0  0  0
 13 14  1  0  0  0
  6  7  1  0  0  0
  7  8  2  0  0  0
  8  9  1  0  0  0
 19 20  1  0  0  0
 20 21  2  0  0  0
 21 16  1  0  0  0
  9  1  2  0  0  0
 28 23  1  0  0  0
  8  4  1  0  0  0
 14 10  1  0  0  0
 23 29  1  0  0  0
M  CHG 1  23   1
M  END
> <minimizedAffinity>
-6.71342

$$$$
