6np5_ligand
     RDKit          3D

 33 35  0  0  0  0  0  0  0  0999 V2000
    9.0532    2.6384   -5.5710 C   0  0  2  0  0  0  0  0  0  0  0  0
    9.7156    2.9887   -6.8086 C   0  0  1  0  0  0  0  0  0  0  0  0
   10.1232    1.6818   -7.5885 C   0  0  2  0  0  0  0  0  0  0  0  0
   10.8537    0.6536   -6.6916 C   0  0  1  0  0  0  0  0  0  0  0  0
    9.8721    0.3168   -5.6138 C   0  0  1  0  0  0  0  0  0  0  0  0
   10.5047   -0.7642   -4.6573 C   0  0  0  0  0  0  0  0  0  0  0  0
    4.6792    4.6225   -3.9029 C   0  0  1  0  0  0  0  0  0  0  0  0
    5.5828    5.3019   -4.8632 C   0  0  1  0  0  0  0  0  0  0  0  0
    6.4263    4.4081   -5.6395 C   0  0  2  0  0  0  0  0  0  0  0  0
    7.0264    3.3839   -4.7945 C   0  0  1  0  0  0  0  0  0  0  0  0
    6.0031    2.6978   -4.0112 C   0  0  2  0  0  0  0  0  0  0  0  0
    5.4952    3.7354   -3.0328 C   0  0  0  0  0  0  0  0  0  0  0  0
    5.5239    7.1483   -6.1535 C   0  0  1  0  0  0  0  0  0  0  0  0
    4.3835    8.0729   -6.7965 C   0  0  1  0  0  0  0  0  0  0  0  0
    4.2510    7.7279   -8.2818 C   0  0  2  0  0  0  0  0  0  0  0  0
    5.5356    7.7313   -9.0622 C   0  0  1  0  0  0  0  0  0  0  0  0
    6.5496    6.7213   -8.3038 C   0  0  1  0  0  0  0  0  0  0  0  0
    8.0561    6.7929   -8.9950 C   0  0  0  0  0  0  0  0  0  0  0  0
    9.6099   -0.9850   -3.5398 N   0  0  0  0  0  0  0  0  0  0  0  0
    6.4593    1.5402   -3.3793 N   0  0  0  0  0  0  0  0  0  0  0  0
    3.8955    5.5606   -3.0692 N   0  0  0  0  0  0  0  0  0  0  0  0
    3.3253    8.8033   -8.9468 N   0  0  0  0  0  0  0  0  0  0  0  0
    9.5325    1.4250   -4.8515 O   0  0  0  0  0  0  0  0  0  0  0  0
   10.7857    2.0583   -8.7826 O   0  0  0  0  0  0  0  0  0  0  0  0
   11.2416   -0.4710   -7.3742 O   0  0  0  0  0  0  0  0  0  0  0  0
    7.5737    2.6517   -5.6232 O   0  0  0  0  0  0  0  0  0  0  0  0
    7.3904    5.1748   -6.3414 O   0  0  0  0  0  0  0  0  0  0  0  0
    4.9232    5.8860   -5.7220 O   0  0  0  0  0  0  0  0  0  0  0  0
    6.6617    6.9504   -6.9470 O   0  0  0  0  0  0  0  0  0  0  0  0
    3.0942    7.9264   -6.1854 O   0  0  0  0  0  0  0  0  0  0  0  0
    5.2847    7.2446  -10.3878 O   0  0  0  0  0  0  0  0  0  0  0  0
    8.9537    6.4493   -8.2577 O   0  0  0  0  0  0  0  0  0  0  0  0
    8.8321    3.8680   -7.6215 N   0  0  0  0  0  0  0  0  0  0  0  0
  1  2  1  0
  1 23  1  0
  1 26  1  6
  2  3  1  0
  2 33  1  6
  3  4  1  0
  3 24  1  6
  5  4  1  0
  4 25  1  6
  5  6  1  1
 23  5  1  0
  6 19  1  0
  8  7  1  0
  7 12  1  0
  7 21  1  1
  8  9  1  0
  8 28  1  6
  9 10  1  0
  9 27  1  1
 10 11  1  0
 10 26  1  6
 12 11  1  0
 11 20  1  1
 13 14  1  0
 13 28  1  6
 13 29  1  0
 14 15  1  0
 14 30  1  1
 15 16  1  0
 15 22  1  6
 16 17  1  0
 16 31  1  6
 17 18  1  6
 17 29  1  0
 18 32  1  0
M  CHG  5  19   1  20   1  21   1  22   1  33   1
M  END
$$$$
