6np5_ligand
     RDKit          3D

 33 35  0  0  0  0  0  0  0  0999 V2000
    6.5679    1.7195   -3.6440 C   0  0  2  0  0  0  0  0  0  0  0  0
    6.3485    2.4536   -5.3837 C   0  0  2  0  0  0  0  0  0  0  0  0
    7.4039    1.8392   -6.0108 C   0  0  1  0  0  0  0  0  0  0  0  0
    8.3695    0.2817   -5.3801 C   0  0  1  0  0  0  0  0  0  0  0  0
    7.7437   -0.3307   -3.9302 C   0  0  1  0  0  0  0  0  0  0  0  0
    8.2636   -1.4942   -3.1772 C   0  0  0  0  0  0  0  0  0  0  0  0
    2.0180    3.4430   -1.2806 C   0  0  2  0  0  0  0  0  0  0  0  0
    2.5611    4.4294   -2.4346 C   0  0  2  0  0  0  0  0  0  0  0  0
    4.0532    4.2133   -3.0142 C   0  0  1  0  0  0  0  0  0  0  0  0
    4.8034    2.8169   -2.5949 C   0  0  2  0  0  0  0  0  0  0  0  0
    4.5123    2.0358   -1.3676 C   0  0  1  0  0  0  0  0  0  0  0  0
    3.1247    1.9863   -0.8411 C   0  0  0  0  0  0  0  0  0  0  0  0
    1.6352    6.4599   -3.5237 C   0  0  1  0  0  0  0  0  0  0  0  0
    0.3492    6.8884   -3.8673 C   0  0  1  0  0  0  0  0  0  0  0  0
    0.0111    7.8588   -5.1537 C   0  0  2  0  0  0  0  0  0  0  0  0
    1.2880    8.5812   -5.6722 C   0  0  1  0  0  0  0  0  0  0  0  0
    2.6664    7.7254   -5.2072 C   0  0  1  0  0  0  0  0  0  0  0  0
    4.0608    8.7335   -5.7520 C   0  0  0  0  0  0  0  0  0  0  0  0
    8.2776   -1.9112   -1.8002 N   0  0  0  0  0  0  0  0  0  0  0  0
    5.7040    1.3920   -0.9925 N   0  0  0  0  0  0  0  0  0  0  0  0
    0.8235    3.6626   -0.9096 N   0  0  0  0  0  0  0  0  0  0  0  0
   -1.4456    8.7880   -5.3677 N   0  0  0  0  0  0  0  0  0  0  0  0
    6.8685    0.4269   -3.1995 O   0  0  0  0  0  0  0  0  0  0  0  0
    7.4170    2.0247   -7.8639 O   0  0  0  0  0  0  0  0  0  0  0  0
    8.9188   -0.4994   -5.6534 O   0  0  0  0  0  0  0  0  0  0  0  0
    5.6466    2.4291   -3.2342 O   0  0  0  0  0  0  0  0  0  0  0  0
    4.2371    5.2085   -4.1572 O   0  0  0  0  0  0  0  0  0  0  0  0
    1.8262    5.4252   -2.8512 O   0  0  0  0  0  0  0  0  0  0  0  0
    2.9447    6.9906   -4.3038 O   0  0  0  0  0  0  0  0  0  0  0  0
   -0.6880    5.9484   -2.8821 O   0  0  0  0  0  0  0  0  0  0  0  0
    0.7113    9.5990   -6.5370 O   0  0  0  0  0  0  0  0  0  0  0  0
    4.9015    9.0464   -6.1953 O   0  0  0  0  0  0  0  0  0  0  0  0
    5.8379    3.7745   -5.8943 N   0  0  0  0  0  0  0  0  0  0  0  0
  1  2  1  0
  1 23  1  0
  1 26  1  1
  2  3  1  0
  2 33  1  6
  3  4  1  0
  3 24  1  1
  5  4  1  0
  4 25  1  6
  5  6  1  1
 23  5  1  0
  6 19  1  0
  8  7  1  0
  7 12  1  0
  7 21  1  1
  8  9  1  0
  8 28  1  6
  9 10  1  0
  9 27  1  1
 10 11  1  0
 10 26  1  6
 12 11  1  0
 11 20  1  1
 13 14  1  0
 13 28  1  6
 13 29  1  0
 14 15  1  0
 14 30  1  6
 15 16  1  0
 15 22  1  1
 16 17  1  0
 16 31  1  6
 17 18  1  1
 17 29  1  0
 18 32  1  0
M  CHG  5  19   1  20   1  21   1  22   1  33   1
M  END
$$$$
6np5_ligand
     RDKit          3D

 33 35  0  0  0  0  0  0  0  0999 V2000
    7.6319    1.3337   -3.7133 C   0  0  2  0  0  0  0  0  0  0  0  0
    7.8596    1.7019   -5.7276 C   0  0  2  0  0  0  0  0  0  0  0  0
    8.5891    1.1887   -6.1718 C   0  0  1  0  0  0  0  0  0  0  0  0
    9.1205   -0.2435   -5.3517 C   0  0  2  0  0  0  0  0  0  0  0  0
    8.7120   -0.5803   -3.8794 C   0  0  2  0  0  0  0  0  0  0  0  0
    8.5327   -1.7836   -2.0343 C   0  0  0  0  0  0  0  0  0  0  0  0
    2.8008    1.6275   -2.7385 C   0  0  1  0  0  0  0  0  0  0  0  0
    4.0680    3.4143   -3.4081 C   0  0  1  0  0  0  0  0  0  0  0  0
    5.0615    3.2477   -3.6229 C   0  0  2  0  0  0  0  0  0  0  0  0
    6.0476    2.1567   -3.2344 C   0  0  2  0  0  0  0  0  0  0  0  0
    5.6709    1.4109   -1.8616 C   0  0  1  0  0  0  0  0  0  0  0  0
    4.1995    0.5944   -1.9939 C   0  0  0  0  0  0  0  0  0  0  0  0
    2.3094    4.5143   -5.3924 C   0  0  2  0  0  0  0  0  0  0  0  0
    0.6535    5.0681   -5.8376 C   0  0  1  0  0  0  0  0  0  0  0  0
    0.4222    5.7792   -7.4033 C   0  0  1  0  0  0  0  0  0  0  0  0
    1.4799    6.3013   -7.9494 C   0  0  1  0  0  0  0  0  0  0  0  0
    3.4499    6.0061   -7.3776 C   0  0  1  0  0  0  0  0  0  0  0  0
    4.8814    6.7249   -8.1307 C   0  0  0  0  0  0  0  0  0  0  0  0
    8.3646   -2.6968   -1.1159 N   0  0  0  0  0  0  0  0  0  0  0  0
    6.5370    0.7539   -1.1571 N   0  0  0  0  0  0  0  0  0  0  0  0
    1.7502    1.8741   -2.4708 N   0  0  0  0  0  0  0  0  0  0  0  0
   -1.3575    5.5367   -8.0086 N   0  0  0  0  0  0  0  0  0  0  0  0
    8.0661    0.1232   -3.0129 O   0  0  0  0  0  0  0  0  0  0  0  0
    8.6503    1.0045   -6.7056 O   0  0  0  0  0  0  0  0  0  0  0  0
   10.0486   -0.4839   -6.3122 O   0  0  0  0  0  0  0  0  0  0  0  0
    7.0384    1.8713   -3.7047 O   0  0  0  0  0  0  0  0  0  0  0  0
    5.7055    4.2606   -4.4151 O   0  0  0  0  0  0  0  0  0  0  0  0
    2.5971    3.5593   -4.6416 O   0  0  0  0  0  0  0  0  0  0  0  0
    3.8572    5.0807   -5.7637 O   0  0  0  0  0  0  0  0  0  0  0  0
   -0.5063    4.8481   -5.3681 O   0  0  0  0  0  0  0  0  0  0  0  0
    1.1954    6.9120   -8.9717 O   0  0  0  0  0  0  0  0  0  0  0  0
    5.7682    7.4512   -7.4699 O   0  0  0  0  0  0  0  0  0  0  0  0
    7.4496    2.9296   -5.6759 N   0  0  0  0  0  0  0  0  0  0  0  0
  1  2  1  0
  1 23  1  0
  1 26  1  6
  2  3  1  0
  2 33  1  6
  3  4  1  0
  3 24  1  1
  5  4  1  0
  4 25  1  6
  5  6  1  1
 23  5  1  0
  6 19  1  0
  8  7  1  0
  7 12  1  0
  7 21  1  1
  8  9  1  0
  8 28  1  6
  9 10  1  0
  9 27  1  1
 10 11  1  0
 10 26  1  6
 12 11  1  0
 11 20  1  1
 13 14  1  0
 13 28  1  6
 13 29  1  0
 14 15  1  0
 14 30  1  6
 15 16  1  0
 15 22  1  1
 16 17  1  0
 16 31  1  6
 17 18  1  1
 17 29  1  0
 18 32  1  0
M  CHG  5  19   1  20   1  21   1  22   1  33   1
M  END
$$$$
6np5_ligand
     RDKit          3D

 33 35  0  0  0  0  0  0  0  0999 V2000
    6.2389    2.1381   -3.0396 C   0  0  2  0  0  0  0  0  0  0  0  0
    6.4363    3.6399   -4.6423 C   0  0  1  0  0  0  0  0  0  0  0  0
    7.7933    2.9471   -4.5375 C   0  0  1  0  0  0  0  0  0  0  0  0
    8.4103    1.3622   -4.1597 C   0  0  1  0  0  0  0  0  0  0  0  0
    7.2793    0.1242   -3.0457 C   0  0  2  0  0  0  0  0  0  0  0  0
    6.6224   -1.5234   -2.2174 C   0  0  0  0  0  0  0  0  0  0  0  0
    3.0186    2.7137   -1.9145 C   0  0  1  0  0  0  0  0  0  0  0  0
    3.3460    3.8987   -2.7302 C   0  0  1  0  0  0  0  0  0  0  0  0
    4.3614    4.0262   -2.6080 C   0  0  1  0  0  0  0  0  0  0  0  0
    4.7626    3.1030   -2.1229 C   0  0  1  0  0  0  0  0  0  0  0  0
    4.4597    2.2036   -1.0390 C   0  0  2  0  0  0  0  0  0  0  0  0
    3.5281    1.9107   -0.9898 C   0  0  0  0  0  0  0  0  0  0  0  0
    2.8851    5.9680   -4.4061 C   0  0  1  0  0  0  0  0  0  0  0  0
    1.8829    5.7663   -5.2171 C   0  0  1  0  0  0  0  0  0  0  0  0
    1.8347    6.6731   -6.3549 C   0  0  2  0  0  0  0  0  0  0  0  0
    2.5475    8.0381   -6.5379 C   0  0  1  0  0  0  0  0  0  0  0  0
    3.8506    7.7215   -5.5119 C   0  0  1  0  0  0  0  0  0  0  0  0
    4.7904    8.9511   -5.8615 C   0  0  0  0  0  0  0  0  0  0  0  0
    6.6010   -2.2927   -1.2691 N   0  0  0  0  0  0  0  0  0  0  0  0
    5.1004    2.1255   -0.0830 N   0  0  0  0  0  0  0  0  0  0  0  0
    1.8632    2.0559   -1.5869 N   0  0  0  0  0  0  0  0  0  0  0  0
    0.7133    6.5979   -7.8057 N   0  0  0  0  0  0  0  0  0  0  0  0
    5.9262    0.9881   -2.5195 O   0  0  0  0  0  0  0  0  0  0  0  0
    8.1681    3.7052   -6.1006 O   0  0  0  0  0  0  0  0  0  0  0  0
    9.1625    0.0517   -4.3136 O   0  0  0  0  0  0  0  0  0  0  0  0
    5.4262    2.6730   -2.5267 O   0  0  0  0  0  0  0  0  0  0  0  0
    4.9693    5.0800   -3.6608 O   0  0  0  0  0  0  0  0  0  0  0  0
    2.7717    4.4767   -3.4222 O   0  0  0  0  0  0  0  0  0  0  0  0
    4.1513    6.7727   -3.8490 O   0  0  0  0  0  0  0  0  0  0  0  0
    1.3813    3.9097   -4.9464 O   0  0  0  0  0  0  0  0  0  0  0  0
    2.1020    8.8608   -7.5838 O   0  0  0  0  0  0  0  0  0  0  0  0
    5.4931    9.7925   -6.1262 O   0  0  0  0  0  0  0  0  0  0  0  0
    6.3984    3.6568   -6.0988 N   0  0  0  0  0  0  0  0  0  0  0  0
  1  2  1  0
  1 23  1  0
  1 26  1  1
  2  3  1  0
  2 33  1  6
  3  4  1  0
  3 24  1  1
  5  4  1  0
  4 25  1  6
  5  6  1  1
 23  5  1  0
  6 19  1  0
  8  7  1  0
  7 12  1  0
  7 21  1  1
  8  9  1  0
  8 28  1  6
  9 10  1  0
  9 27  1  1
 10 11  1  0
 10 26  1  6
 12 11  1  0
 11 20  1  1
 13 14  1  0
 13 28  1  6
 13 29  1  0
 14 15  1  0
 14 30  1  6
 15 16  1  0
 15 22  1  1
 16 17  1  0
 16 31  1  6
 17 18  1  1
 17 29  1  0
 18 32  1  0
M  CHG  5  19   1  20   1  21   1  22   1  33   1
M  END
$$$$
6np5_ligand
     RDKit          3D

 33 35  0  0  0  0  0  0  0  0999 V2000
    6.4097    1.9816   -3.6533 C   0  0  2  0  0  0  0  0  0  0  0  0
    6.5565    2.1907   -5.6935 C   0  0  2  0  0  0  0  0  0  0  0  0
    7.7386    2.3812   -5.9499 C   0  0  1  0  0  0  0  0  0  0  0  0
    8.1452    0.4181   -5.2600 C   0  0  2  0  0  0  0  0  0  0  0  0
    7.2028    0.0883   -3.8152 C   0  0  2  0  0  0  0  0  0  0  0  0
    6.9002   -1.3350   -2.8506 C   0  0  0  0  0  0  0  0  0  0  0  0
    2.5675    3.5022   -1.3525 C   0  0  1  0  0  0  0  0  0  0  0  0
    3.3691    4.5233   -2.2797 C   0  0  1  0  0  0  0  0  0  0  0  0
    4.5555    4.1990   -2.7601 C   0  0  1  0  0  0  0  0  0  0  0  0
    4.8955    2.9295   -2.6403 C   0  0  2  0  0  0  0  0  0  0  0  0
    4.5916    2.1995   -1.3160 C   0  0  1  0  0  0  0  0  0  0  0  0
    3.2048    2.2113   -1.1460 C   0  0  0  0  0  0  0  0  0  0  0  0
    2.4374    6.0642   -3.7825 C   0  0  2  0  0  0  0  0  0  0  0  0
    1.3123    6.4959   -4.2250 C   0  0  1  0  0  0  0  0  0  0  0  0
    0.7058    7.1686   -5.6884 C   0  0  2  0  0  0  0  0  0  0  0  0
    1.8641    7.7388   -6.2294 C   0  0  1  0  0  0  0  0  0  0  0  0
    3.2452    7.0258   -6.1955 C   0  0  1  0  0  0  0  0  0  0  0  0
    4.4765    7.8682   -6.8957 C   0  0  0  0  0  0  0  0  0  0  0  0
    6.9061   -1.7720   -2.7129 N   0  0  0  0  0  0  0  0  0  0  0  0
    5.4450    1.1439   -0.8644 N   0  0  0  0  0  0  0  0  0  0  0  0
    1.5921    4.2049   -0.6538 N   0  0  0  0  0  0  0  0  0  0  0  0
   -0.4788    7.8774   -5.6695 N   0  0  0  0  0  0  0  0  0  0  0  0
    6.3301    0.7247   -3.0881 O   0  0  0  0  0  0  0  0  0  0  0  0
    8.0177    2.8149   -7.6622 O   0  0  0  0  0  0  0  0  0  0  0  0
    8.9084    0.0110   -5.7193 O   0  0  0  0  0  0  0  0  0  0  0  0
    5.4825    2.6203   -3.3769 O   0  0  0  0  0  0  0  0  0  0  0  0
    5.1640    5.4084   -3.6323 O   0  0  0  0  0  0  0  0  0  0  0  0
    2.6597    5.4917   -2.5770 O   0  0  0  0  0  0  0  0  0  0  0  0
    3.3481    6.5140   -4.8296 O   0  0  0  0  0  0  0  0  0  0  0  0
    0.0509    5.8971   -3.6352 O   0  0  0  0  0  0  0  0  0  0  0  0
    1.5428    8.5838   -6.9721 O   0  0  0  0  0  0  0  0  0  0  0  0
    5.1429    7.8587   -7.4298 O   0  0  0  0  0  0  0  0  0  0  0  0
    5.2457    3.4379   -6.3801 N   0  0  0  0  0  0  0  0  0  0  0  0
  1  2  1  0
  1 23  1  0
  1 26  1  6
  2  3  1  0
  2 33  1  6
  3  4  1  0
  3 24  1  1
  5  4  1  0
  4 25  1  6
  5  6  1  1
 23  5  1  0
  6 19  1  0
  8  7  1  0
  7 12  1  0
  7 21  1  1
  8  9  1  0
  8 28  1  6
  9 10  1  0
  9 27  1  1
 10 11  1  0
 10 26  1  6
 12 11  1  0
 11 20  1  1
 13 14  1  0
 13 28  1  6
 13 29  1  0
 14 15  1  0
 14 30  1  6
 15 16  1  0
 15 22  1  1
 16 17  1  0
 16 31  1  6
 17 18  1  1
 17 29  1  0
 18 32  1  0
M  CHG  5  19   1  20   1  21   1  22   1  33   1
M  END
$$$$
6np5_ligand
     RDKit          3D

 33 35  0  0  0  0  0  0  0  0999 V2000
    5.5255    0.9195   -3.8337 C   0  0  2  0  0  0  0  0  0  0  0  0
    5.5557    1.9682   -5.4479 C   0  0  1  0  0  0  0  0  0  0  0  0
    7.2106    1.8472   -5.6407 C   0  0  1  0  0  0  0  0  0  0  0  0
    8.0668   -0.3642   -5.1445 C   0  0  2  0  0  0  0  0  0  0  0  0
    7.4413   -0.4835   -3.5327 C   0  0  2  0  0  0  0  0  0  0  0  0
    8.3657   -1.2519   -3.0887 C   0  0  0  0  0  0  0  0  0  0  0  0
    2.0898    3.1547   -1.4472 C   0  0  1  0  0  0  0  0  0  0  0  0
    2.4648    4.0527   -2.6240 C   0  0  1  0  0  0  0  0  0  0  0  0
    3.7980    3.5215   -3.1120 C   0  0  1  0  0  0  0  0  0  0  0  0
    4.2468    2.2071   -2.8753 C   0  0  2  0  0  0  0  0  0  0  0  0
    3.8399    1.5798   -1.6662 C   0  0  1  0  0  0  0  0  0  0  0  0
    2.4790    2.0404   -1.0967 C   0  0  0  0  0  0  0  0  0  0  0  0
    1.6472    5.7763   -4.3109 C   0  0  1  0  0  0  0  0  0  0  0  0
    0.9171    6.5032   -4.3417 C   0  0  2  0  0  0  0  0  0  0  0  0
    0.3066    7.1147   -5.6597 C   0  0  2  0  0  0  0  0  0  0  0  0
    1.0287    7.1934   -6.6069 C   0  0  1  0  0  0  0  0  0  0  0  0
    2.2326    6.4440   -6.6157 C   0  0  2  0  0  0  0  0  0  0  0  0
    3.3884    6.5226   -8.0069 C   0  0  0  0  0  0  0  0  0  0  0  0
    8.4198   -1.8803   -2.6424 N   0  0  0  0  0  0  0  0  0  0  0  0
    5.2071    0.3401   -1.2761 N   0  0  0  0  0  0  0  0  0  0  0  0
    1.4946    3.3579   -0.3634 N   0  0  0  0  0  0  0  0  0  0  0  0
   -0.5636    8.2897   -5.3747 N   0  0  0  0  0  0  0  0  0  0  0  0
    5.9802   -0.2120   -3.1966 O   0  0  0  0  0  0  0  0  0  0  0  0
    7.5202    2.1070   -7.3551 O   0  0  0  0  0  0  0  0  0  0  0  0
    9.1093   -1.0200   -5.3296 O   0  0  0  0  0  0  0  0  0  0  0  0
    4.7885    1.6189   -3.3626 O   0  0  0  0  0  0  0  0  0  0  0  0
    4.5873    4.4407   -4.2850 O   0  0  0  0  0  0  0  0  0  0  0  0
    1.9674    4.8743   -3.2687 O   0  0  0  0  0  0  0  0  0  0  0  0
    2.2421    5.6871   -5.3668 O   0  0  0  0  0  0  0  0  0  0  0  0
    1.0926    6.6835   -2.9917 O   0  0  0  0  0  0  0  0  0  0  0  0
    0.4866    7.7970   -7.6996 O   0  0  0  0  0  0  0  0  0  0  0  0
    4.1594    7.3534   -9.1874 O   0  0  0  0  0  0  0  0  0  0  0  0
    5.7350    2.5426   -6.5624 N   0  0  0  0  0  0  0  0  0  0  0  0
  1  2  1  0
  1 23  1  0
  1 26  1  6
  2  3  1  0
  2 33  1  6
  3  4  1  0
  3 24  1  1
  5  4  1  0
  4 25  1  6
  5  6  1  1
 23  5  1  0
  6 19  1  0
  8  7  1  0
  7 12  1  0
  7 21  1  1
  8  9  1  0
  8 28  1  6
  9 10  1  0
  9 27  1  1
 10 11  1  0
 10 26  1  6
 12 11  1  0
 11 20  1  1
 13 14  1  0
 13 28  1  6
 13 29  1  0
 14 15  1  0
 14 30  1  6
 15 16  1  0
 15 22  1  1
 16 17  1  0
 16 31  1  6
 17 18  1  1
 17 29  1  0
 18 32  1  0
M  CHG  5  19   1  20   1  21   1  22   1  33   1
M  END
$$$$
6np5_ligand
     RDKit          3D

 33 35  0  0  0  0  0  0  0  0999 V2000
    5.7913    1.1843   -3.7554 C   0  0  2  0  0  0  0  0  0  0  0  0
    5.3108    1.0769   -5.6411 C   0  0  2  0  0  0  0  0  0  0  0  0
    5.8316    0.4530   -6.4209 C   0  0  1  0  0  0  0  0  0  0  0  0
    6.8274   -0.7226   -6.0433 C   0  0  1  0  0  0  0  0  0  0  0  0
    6.7417   -0.6138   -4.1031 C   0  0  2  0  0  0  0  0  0  0  0  0
    7.0730   -1.6381   -2.8632 C   0  0  0  0  0  0  0  0  0  0  0  0
    3.7900    3.4928   -1.1243 C   0  0  2  0  0  0  0  0  0  0  0  0
    3.8970    4.3145   -2.6014 C   0  0  2  0  0  0  0  0  0  0  0  0
    4.7774    3.7593   -3.1082 C   0  0  1  0  0  0  0  0  0  0  0  0
    5.2246    2.6009   -2.6990 C   0  0  1  0  0  0  0  0  0  0  0  0
    4.9616    2.1029   -1.1617 C   0  0  1  0  0  0  0  0  0  0  0  0
    4.3207    2.4077   -0.6279 C   0  0  0  0  0  0  0  0  0  0  0  0
    3.7168    6.4329   -4.1720 C   0  0  1  0  0  0  0  0  0  0  0  0
    3.2838    7.0469   -5.4769 C   0  0  2  0  0  0  0  0  0  0  0  0
    2.8264    7.3727   -6.5709 C   0  0  2  0  0  0  0  0  0  0  0  0
    3.1029    8.2131   -6.6811 C   0  0  1  0  0  0  0  0  0  0  0  0
    4.6008    8.0653   -5.7857 C   0  0  1  0  0  0  0  0  0  0  0  0
    5.8326    9.2149   -6.3219 C   0  0  0  0  0  0  0  0  0  0  0  0
    7.4630   -2.1752   -1.9793 N   0  0  0  0  0  0  0  0  0  0  0  0
    5.4776    1.2912   -0.6207 N   0  0  0  0  0  0  0  0  0  0  0  0
    2.5102    3.2762    0.4599 N   0  0  0  0  0  0  0  0  0  0  0  0
    2.0772    7.7353   -7.8215 N   0  0  0  0  0  0  0  0  0  0  0  0
    6.2401    0.2686   -3.1583 O   0  0  0  0  0  0  0  0  0  0  0  0
    5.7503    0.3894   -7.5661 O   0  0  0  0  0  0  0  0  0  0  0  0
    7.3015   -1.3400   -6.6493 O   0  0  0  0  0  0  0  0  0  0  0  0
    5.3140    2.0684   -3.2084 O   0  0  0  0  0  0  0  0  0  0  0  0
    4.8799    4.5193   -4.5533 O   0  0  0  0  0  0  0  0  0  0  0  0
    3.6302    5.5941   -3.4093 O   0  0  0  0  0  0  0  0  0  0  0  0
    4.5391    7.3364   -4.4768 O   0  0  0  0  0  0  0  0  0  0  0  0
    4.2121    7.5603   -5.8106 O   0  0  0  0  0  0  0  0  0  0  0  0
    2.1585    9.0430   -7.7313 O   0  0  0  0  0  0  0  0  0  0  0  0
    6.5052   10.3008   -6.3422 O   0  0  0  0  0  0  0  0  0  0  0  0
    4.5906    2.2565   -6.0353 N   0  0  0  0  0  0  0  0  0  0  0  0
  1  2  1  0
  1 23  1  0
  1 26  1  1
  2  3  1  0
  2 33  1  1
  3  4  1  0
  3 24  1  6
  5  4  1  0
  4 25  1  1
  5  6  1  1
 23  5  1  0
  6 19  1  0
  8  7  1  0
  7 12  1  0
  7 21  1  1
  8  9  1  0
  8 28  1  6
  9 10  1  0
  9 27  1  1
 10 11  1  0
 10 26  1  6
 12 11  1  0
 11 20  1  1
 13 14  1  0
 13 28  1  6
 13 29  1  0
 14 15  1  0
 14 30  1  1
 15 16  1  0
 15 22  1  1
 16 17  1  0
 16 31  1  6
 17 18  1  1
 17 29  1  0
 18 32  1  0
M  CHG  5  19   1  20   1  21   1  22   1  33   1
M  END
$$$$
6np5_ligand
     RDKit          3D

 33 35  0  0  0  0  0  0  0  0999 V2000
    6.2768    1.2924   -2.9730 C   0  0  2  0  0  0  0  0  0  0  0  0
    6.0252    1.2056   -4.7325 C   0  0  2  0  0  0  0  0  0  0  0  0
    6.7596    0.7283   -5.4570 C   0  0  1  0  0  0  0  0  0  0  0  0
    7.8104   -0.3788   -4.9002 C   0  0  2  0  0  0  0  0  0  0  0  0
    7.5900   -0.2572   -3.2955 C   0  0  1  0  0  0  0  0  0  0  0  0
    8.2563   -1.1111   -2.1930 C   0  0  0  0  0  0  0  0  0  0  0  0
    2.9097    4.0989    0.0894 C   0  0  2  0  0  0  0  0  0  0  0  0
    3.4030    4.8279   -1.3562 C   0  0  1  0  0  0  0  0  0  0  0  0
    4.5950    4.3298   -2.0773 C   0  0  1  0  0  0  0  0  0  0  0  0
    5.0845    2.8612   -1.8621 C   0  0  1  0  0  0  0  0  0  0  0  0
    4.6627    2.2345   -0.4371 C   0  0  2  0  0  0  0  0  0  0  0  0
    3.5297    2.8813    0.3375 C   0  0  0  0  0  0  0  0  0  0  0  0
    3.0082    6.8264   -2.6398 C   0  0  1  0  0  0  0  0  0  0  0  0
    2.1489    7.4561   -2.9395 C   0  0  2  0  0  0  0  0  0  0  0  0
    1.8137    8.3718   -4.0602 C   0  0  2  0  0  0  0  0  0  0  0  0
    2.6196    9.0842   -4.5143 C   0  0  1  0  0  0  0  0  0  0  0  0
    4.1883    8.3985   -3.9210 C   0  0  2  0  0  0  0  0  0  0  0  0
    5.5283    9.1083   -4.8049 C   0  0  0  0  0  0  0  0  0  0  0  0
    8.3936   -2.1098   -1.5702 N   0  0  0  0  0  0  0  0  0  0  0  0
    5.6992    1.2277   -0.0097 N   0  0  0  0  0  0  0  0  0  0  0  0
    1.5793    4.8165    0.4297 N   0  0  0  0  0  0  0  0  0  0  0  0
    0.5119    9.1999   -4.6688 N   0  0  0  0  0  0  0  0  0  0  0  0
    6.9707    0.4129   -2.2472 O   0  0  0  0  0  0  0  0  0  0  0  0
    7.0090    0.6728   -6.4239 O   0  0  0  0  0  0  0  0  0  0  0  0
    8.6273   -1.0460   -5.5053 O   0  0  0  0  0  0  0  0  0  0  0  0
    5.4788    2.2017   -2.5560 O   0  0  0  0  0  0  0  0  0  0  0  0
    4.9681    4.9090   -3.3338 O   0  0  0  0  0  0  0  0  0  0  0  0
    3.0158    5.6158   -2.0006 O   0  0  0  0  0  0  0  0  0  0  0  0
    4.2331    7.2898   -3.0362 O   0  0  0  0  0  0  0  0  0  0  0  0
    1.6347    7.8852   -2.5445 O   0  0  0  0  0  0  0  0  0  0  0  0
    2.5837    9.9379   -5.6523 O   0  0  0  0  0  0  0  0  0  0  0  0
    6.9075    9.6842   -4.6749 O   0  0  0  0  0  0  0  0  0  0  0  0
    5.1468    1.8223   -4.8219 N   0  0  0  0  0  0  0  0  0  0  0  0
  1  2  1  0
  1 23  1  0
  1 26  1  1
  2  3  1  0
  2 33  1  1
  3  4  1  0
  3 24  1  1
  5  4  1  0
  4 25  1  6
  5  6  1  1
 23  5  1  0
  6 19  1  0
  8  7  1  0
  7 12  1  0
  7 21  1  1
  8  9  1  0
  8 28  1  6
  9 10  1  0
  9 27  1  1
 10 11  1  0
 10 26  1  6
 12 11  1  0
 11 20  1  1
 13 14  1  0
 13 28  1  6
 13 29  1  0
 14 15  1  0
 14 30  1  6
 15 16  1  0
 15 22  1  1
 16 17  1  0
 16 31  1  6
 17 18  1  1
 17 29  1  0
 18 32  1  0
M  CHG  5  19   1  20   1  21   1  22   1  33   1
M  END
$$$$
6np5_ligand
     RDKit          3D

 33 35  0  0  0  0  0  0  0  0999 V2000
    6.3374    1.1639   -3.8188 C   0  0  2  0  0  0  0  0  0  0  0  0
    6.2449    1.1053   -5.4815 C   0  0  2  0  0  0  0  0  0  0  0  0
    6.5817    0.4001   -6.2714 C   0  0  2  0  0  0  0  0  0  0  0  0
    7.6905   -0.6057   -5.7219 C   0  0  1  0  0  0  0  0  0  0  0  0
    7.5648   -0.4319   -4.0590 C   0  0  2  0  0  0  0  0  0  0  0  0
    8.1265   -1.4349   -3.0171 C   0  0  0  0  0  0  0  0  0  0  0  0
    2.9518    3.7754   -0.8569 C   0  0  2  0  0  0  0  0  0  0  0  0
    3.4787    4.6084   -2.1904 C   0  0  2  0  0  0  0  0  0  0  0  0
    4.9316    3.9921   -2.6687 C   0  0  1  0  0  0  0  0  0  0  0  0
    5.1671    2.7248   -2.5330 C   0  0  1  0  0  0  0  0  0  0  0  0
    4.5101    1.9449   -1.2902 C   0  0  2  0  0  0  0  0  0  0  0  0
    3.1392    2.3782   -0.7193 C   0  0  0  0  0  0  0  0  0  0  0  0
    3.2469    6.6758   -3.2311 C   0  0  1  0  0  0  0  0  0  0  0  0
    2.1620    7.1982   -3.4883 C   0  0  2  0  0  0  0  0  0  0  0  0
    1.8820    7.6834   -4.7834 C   0  0  2  0  0  0  0  0  0  0  0  0
    2.8547    8.0163   -5.4657 C   0  0  2  0  0  0  0  0  0  0  0  0
    4.7584    7.4062   -4.8792 C   0  0  1  0  0  0  0  0  0  0  0  0
    6.0489    7.8836   -5.6286 C   0  0  0  0  0  0  0  0  0  0  0  0
    8.3929   -2.3734   -2.1149 N   0  0  0  0  0  0  0  0  0  0  0  0
    5.2987    0.9031   -0.7421 N   0  0  0  0  0  0  0  0  0  0  0  0
    1.7420    4.4396   -0.4694 N   0  0  0  0  0  0  0  0  0  0  0  0
    0.3771    8.1996   -5.3717 N   0  0  0  0  0  0  0  0  0  0  0  0
    6.9713    0.4366   -3.1402 O   0  0  0  0  0  0  0  0  0  0  0  0
    6.5859    0.3923   -7.4825 O   0  0  0  0  0  0  0  0  0  0  0  0
    8.0805   -1.5154   -6.3903 O   0  0  0  0  0  0  0  0  0  0  0  0
    5.6449    2.0284   -3.4455 O   0  0  0  0  0  0  0  0  0  0  0  0
    5.6456    4.6446   -3.6524 O   0  0  0  0  0  0  0  0  0  0  0  0
    3.1821    5.5671   -2.6502 O   0  0  0  0  0  0  0  0  0  0  0  0
    4.7132    6.7726   -3.6702 O   0  0  0  0  0  0  0  0  0  0  0  0
    1.5015    7.3209   -2.6210 O   0  0  0  0  0  0  0  0  0  0  0  0
    2.7896    8.7464   -6.5646 O   0  0  0  0  0  0  0  0  0  0  0  0
    7.2691    8.3403   -5.8782 O   0  0  0  0  0  0  0  0  0  0  0  0
    5.5266    2.5465   -5.7512 N   0  0  0  0  0  0  0  0  0  0  0  0
  1  2  1  0
  1 23  1  0
  1 26  1  1
  2  3  1  0
  2 33  1  1
  3  4  1  0
  3 24  1  6
  5  4  1  0
  4 25  1  1
  5  6  1  1
 23  5  1  0
  6 19  1  0
  8  7  1  0
  7 12  1  0
  7 21  1  1
  8  9  1  0
  8 28  1  6
  9 10  1  0
  9 27  1  1
 10 11  1  0
 10 26  1  6
 12 11  1  0
 11 20  1  1
 13 14  1  0
 13 28  1  6
 13 29  1  0
 14 15  1  0
 14 30  1  6
 15 16  1  0
 15 22  1  1
 16 17  1  0
 16 31  1  6
 17 18  1  1
 17 29  1  0
 18 32  1  0
M  CHG  5  19   1  20   1  21   1  22   1  33   1
M  END
$$$$
6np5_ligand
     RDKit          3D

 33 35  0  0  0  0  0  0  0  0999 V2000
    6.1759    1.2064   -3.5724 C   0  0  2  0  0  0  0  0  0  0  0  0
    6.2326    1.2248   -5.1288 C   0  0  2  0  0  0  0  0  0  0  0  0
    6.7714    0.8043   -5.8346 C   0  0  1  0  0  0  0  0  0  0  0  0
    7.6703   -0.4333   -5.0664 C   0  0  1  0  0  0  0  0  0  0  0  0
    7.3148   -0.4857   -3.4393 C   0  0  2  0  0  0  0  0  0  0  0  0
    7.4100   -1.5361   -2.5105 C   0  0  0  0  0  0  0  0  0  0  0  0
    2.4878    3.8583   -0.6254 C   0  0  2  0  0  0  0  0  0  0  0  0
    3.1377    4.6494   -1.9922 C   0  0  2  0  0  0  0  0  0  0  0  0
    4.4512    4.0433   -2.4724 C   0  0  1  0  0  0  0  0  0  0  0  0
    4.8688    2.8048   -2.1923 C   0  0  1  0  0  0  0  0  0  0  0  0
    4.2035    1.9766   -0.9269 C   0  0  2  0  0  0  0  0  0  0  0  0
    3.0674    2.5894   -0.2799 C   0  0  0  0  0  0  0  0  0  0  0  0
    2.7940    6.8132   -3.1525 C   0  0  1  0  0  0  0  0  0  0  0  0
    1.6020    7.4057   -3.2023 C   0  0  2  0  0  0  0  0  0  0  0  0
    1.4188    8.2681   -4.4014 C   0  0  2  0  0  0  0  0  0  0  0  0
    2.5660    8.8675   -5.3949 C   0  0  1  0  0  0  0  0  0  0  0  0
    4.3551    8.0419   -4.6662 C   0  0  2  0  0  0  0  0  0  0  0  0
    5.7683    8.3720   -5.5363 C   0  0  0  0  0  0  0  0  0  0  0  0
    7.5927   -2.1288   -1.7689 N   0  0  0  0  0  0  0  0  0  0  0  0
    5.0630    0.9068   -0.6283 N   0  0  0  0  0  0  0  0  0  0  0  0
    1.2663    4.5145   -0.3125 N   0  0  0  0  0  0  0  0  0  0  0  0
   -0.1573    8.9252   -4.7347 N   0  0  0  0  0  0  0  0  0  0  0  0
    6.5525    0.2362   -2.7029 O   0  0  0  0  0  0  0  0  0  0  0  0
    6.8186    0.7458   -7.0108 O   0  0  0  0  0  0  0  0  0  0  0  0
    8.2549   -1.2850   -5.3300 O   0  0  0  0  0  0  0  0  0  0  0  0
    5.3935    2.0618   -3.1432 O   0  0  0  0  0  0  0  0  0  0  0  0
    5.3497    4.6545   -3.7089 O   0  0  0  0  0  0  0  0  0  0  0  0
    2.7584    5.6372   -2.5645 O   0  0  0  0  0  0  0  0  0  0  0  0
    4.4851    6.9464   -3.6681 O   0  0  0  0  0  0  0  0  0  0  0  0
    0.9931    7.0971   -1.9644 O   0  0  0  0  0  0  0  0  0  0  0  0
    2.4896    9.5951   -6.6035 O   0  0  0  0  0  0  0  0  0  0  0  0
    6.9211    8.5596   -5.6963 O   0  0  0  0  0  0  0  0  0  0  0  0
    5.3061    2.2172   -5.4514 N   0  0  0  0  0  0  0  0  0  0  0  0
  1  2  1  0
  1 23  1  0
  1 26  1  6
  2  3  1  0
  2 33  1  6
  3  4  1  0
  3 24  1  1
  5  4  1  0
  4 25  1  6
  5  6  1  1
 23  5  1  0
  6 19  1  0
  8  7  1  0
  7 12  1  0
  7 21  1  1
  8  9  1  0
  8 28  1  6
  9 10  1  0
  9 27  1  1
 10 11  1  0
 10 26  1  6
 12 11  1  0
 11 20  1  1
 13 14  1  0
 13 28  1  6
 13 29  1  0
 14 15  1  0
 14 30  1  6
 15 16  1  0
 15 22  1  1
 16 17  1  0
 16 31  1  6
 17 18  1  1
 17 29  1  0
 18 32  1  0
M  CHG  5  19   1  20   1  21   1  22   1  33   1
M  END
$$$$
6np5_ligand
     RDKit          3D

 33 35  0  0  0  0  0  0  0  0999 V2000
    6.0463    1.0565   -3.6315 C   0  0  2  0  0  0  0  0  0  0  0  0
    5.9864    0.9759   -5.3265 C   0  0  2  0  0  0  0  0  0  0  0  0
    6.3459    0.4563   -5.9453 C   0  0  2  0  0  0  0  0  0  0  0  0
    7.3780   -0.6695   -5.2236 C   0  0  1  0  0  0  0  0  0  0  0  0
    7.2435   -0.5458   -3.6832 C   0  0  2  0  0  0  0  0  0  0  0  0
    7.7616   -1.3422   -2.7734 C   0  0  0  0  0  0  0  0  0  0  0  0
    2.2704    3.7018   -0.7046 C   0  0  2  0  0  0  0  0  0  0  0  0
    2.8528    4.5786   -2.0581 C   0  0  1  0  0  0  0  0  0  0  0  0
    4.2666    3.8362   -2.6325 C   0  0  1  0  0  0  0  0  0  0  0  0
    4.5930    2.6608   -2.3407 C   0  0  1  0  0  0  0  0  0  0  0  0
    3.9452    1.9786   -1.0617 C   0  0  2  0  0  0  0  0  0  0  0  0
    2.7043    2.6301   -0.4704 C   0  0  0  0  0  0  0  0  0  0  0  0
    2.4252    6.7862   -3.2573 C   0  0  1  0  0  0  0  0  0  0  0  0
    1.1829    7.5572   -3.2562 C   0  0  1  0  0  0  0  0  0  0  0  0
    1.0212    8.3169   -4.5424 C   0  0  2  0  0  0  0  0  0  0  0  0
    2.2137    8.7074   -5.6040 C   0  0  1  0  0  0  0  0  0  0  0  0
    3.6588    7.8097   -4.7591 C   0  0  2  0  0  0  0  0  0  0  0  0
    5.0290    8.2687   -5.9659 C   0  0  0  0  0  0  0  0  0  0  0  0
    8.1551   -1.7536   -2.0836 N   0  0  0  0  0  0  0  0  0  0  0  0
    4.7563    0.9288   -0.8032 N   0  0  0  0  0  0  0  0  0  0  0  0
    1.2622    4.5715   -0.2317 N   0  0  0  0  0  0  0  0  0  0  0  0
   -0.6565    8.9771   -4.6589 N   0  0  0  0  0  0  0  0  0  0  0  0
    6.6338    0.1543   -2.8193 O   0  0  0  0  0  0  0  0  0  0  0  0
    6.3716    0.3146   -7.1117 O   0  0  0  0  0  0  0  0  0  0  0  0
    8.0836   -1.4591   -5.6677 O   0  0  0  0  0  0  0  0  0  0  0  0
    5.1285    1.8659   -3.2355 O   0  0  0  0  0  0  0  0  0  0  0  0
    4.9998    4.3875   -3.7459 O   0  0  0  0  0  0  0  0  0  0  0  0
    2.3037    5.6160   -2.5703 O   0  0  0  0  0  0  0  0  0  0  0  0
    3.9370    6.7875   -4.0798 O   0  0  0  0  0  0  0  0  0  0  0  0
    0.3968    7.3296   -1.9064 O   0  0  0  0  0  0  0  0  0  0  0  0
    1.9375    9.3969   -6.7164 O   0  0  0  0  0  0  0  0  0  0  0  0
    6.0924    7.6885   -6.6822 O   0  0  0  0  0  0  0  0  0  0  0  0
    5.1102    2.2610   -5.6855 N   0  0  0  0  0  0  0  0  0  0  0  0
  1  2  1  0
  1 23  1  0
  1 26  1  1
  2  3  1  0
  2 33  1  1
  3  4  1  0
  3 24  1  6
  5  4  1  0
  4 25  1  6
  5  6  1  1
 23  5  1  0
  6 19  1  0
  8  7  1  0
  7 12  1  0
  7 21  1  1
  8  9  1  0
  8 28  1  6
  9 10  1  0
  9 27  1  1
 10 11  1  0
 10 26  1  6
 12 11  1  0
 11 20  1  1
 13 14  1  0
 13 28  1  6
 13 29  1  0
 14 15  1  0
 14 30  1  6
 15 16  1  0
 15 22  1  1
 16 17  1  0
 16 31  1  6
 17 18  1  1
 17 29  1  0
 18 32  1  0
M  CHG  5  19   1  20   1  21   1  22   1  33   1
M  END
$$$$
6np5_ligand
     RDKit          3D

 33 35  0  0  0  0  0  0  0  0999 V2000
    6.3131    0.6800   -3.9512 C   0  0  2  0  0  0  0  0  0  0  0  0
    6.3444    0.5712   -5.5160 C   0  0  1  0  0  0  0  0  0  0  0  0
    6.9026   -0.0965   -6.1885 C   0  0  2  0  0  0  0  0  0  0  0  0
    7.8922   -1.0691   -5.5974 C   0  0  1  0  0  0  0  0  0  0  0  0
    7.4150   -0.8913   -3.9599 C   0  0  1  0  0  0  0  0  0  0  0  0
    7.9788   -1.8973   -3.0639 C   0  0  0  0  0  0  0  0  0  0  0  0
    2.9736    3.7242   -0.9992 C   0  0  2  0  0  0  0  0  0  0  0  0
    3.4980    4.2107   -2.4280 C   0  0  2  0  0  0  0  0  0  0  0  0
    4.5230    3.4135   -3.0339 C   0  0  1  0  0  0  0  0  0  0  0  0
    4.9473    2.3365   -2.6653 C   0  0  1  0  0  0  0  0  0  0  0  0
    4.4149    1.7190   -1.4090 C   0  0  2  0  0  0  0  0  0  0  0  0
    3.4003    2.6646   -0.6699 C   0  0  0  0  0  0  0  0  0  0  0  0
    3.2130    6.3258   -3.6294 C   0  0  1  0  0  0  0  0  0  0  0  0
    1.9944    6.9691   -3.9092 C   0  0  1  0  0  0  0  0  0  0  0  0
    2.1325    7.6489   -5.4244 C   0  0  2  0  0  0  0  0  0  0  0  0
    3.4485    8.0493   -6.2776 C   0  0  1  0  0  0  0  0  0  0  0  0
    4.4787    7.2309   -5.3133 C   0  0  1  0  0  0  0  0  0  0  0  0
    5.7930    7.6890   -6.1681 C   0  0  0  0  0  0  0  0  0  0  0  0
    8.1515   -2.3597   -2.2237 N   0  0  0  0  0  0  0  0  0  0  0  0
    5.0623    0.6674   -1.0386 N   0  0  0  0  0  0  0  0  0  0  0  0
    2.1053    4.8007   -0.6661 N   0  0  0  0  0  0  0  0  0  0  0  0
    0.4779    8.0674   -5.9452 N   0  0  0  0  0  0  0  0  0  0  0  0
    6.8885   -0.0899   -3.1378 O   0  0  0  0  0  0  0  0  0  0  0  0
    7.0084   -0.1400   -7.3766 O   0  0  0  0  0  0  0  0  0  0  0  0
    8.6509   -1.7820   -5.9844 O   0  0  0  0  0  0  0  0  0  0  0  0
    5.5206    1.4285   -3.6398 O   0  0  0  0  0  0  0  0  0  0  0  0
    5.2094    3.5935   -4.3969 O   0  0  0  0  0  0  0  0  0  0  0  0
    3.0861    5.2737   -3.0012 O   0  0  0  0  0  0  0  0  0  0  0  0
    4.7132    6.5286   -4.1802 O   0  0  0  0  0  0  0  0  0  0  0  0
    0.7849    6.3015   -2.6849 O   0  0  0  0  0  0  0  0  0  0  0  0
    3.4833    8.5560   -7.5252 O   0  0  0  0  0  0  0  0  0  0  0  0
    7.0070    7.3491   -6.5788 O   0  0  0  0  0  0  0  0  0  0  0  0
    5.2865    1.6672   -6.0496 N   0  0  0  0  0  0  0  0  0  0  0  0
  1  2  1  0
  1 23  1  0
  1 26  1  1
  2  3  1  0
  2 33  1  1
  3  4  1  0
  3 24  1  6
  5  4  1  0
  4 25  1  6
  5  6  1  1
 23  5  1  0
  6 19  1  0
  8  7  1  0
  7 12  1  0
  7 21  1  1
  8  9  1  0
  8 28  1  6
  9 10  1  0
  9 27  1  1
 10 11  1  0
 10 26  1  6
 12 11  1  0
 11 20  1  1
 13 14  1  0
 13 28  1  6
 13 29  1  0
 14 15  1  0
 14 30  1  6
 15 16  1  0
 15 22  1  1
 16 17  1  0
 16 31  1  6
 17 18  1  1
 17 29  1  0
 18 32  1  0
M  CHG  5  19   1  20   1  21   1  22   1  33   1
M  END
$$$$
6np5_ligand
     RDKit          3D

 33 35  0  0  0  0  0  0  0  0999 V2000
    6.2506    1.2829   -3.8387 C   0  0  1  0  0  0  0  0  0  0  0  0
    6.4269    1.4171   -5.3048 C   0  0  1  0  0  0  0  0  0  0  0  0
    6.9391    0.5423   -5.8629 C   0  0  2  0  0  0  0  0  0  0  0  0
    8.0529   -0.2879   -5.2886 C   0  0  1  0  0  0  0  0  0  0  0  0
    7.6128   -0.1205   -3.7623 C   0  0  1  0  0  0  0  0  0  0  0  0
    8.1884   -1.0056   -2.7281 C   0  0  0  0  0  0  0  0  0  0  0  0
    2.7872    4.0621   -1.2573 C   0  0  2  0  0  0  0  0  0  0  0  0
    3.3155    4.4652   -2.6372 C   0  0  2  0  0  0  0  0  0  0  0  0
    4.4612    3.7802   -3.1728 C   0  0  1  0  0  0  0  0  0  0  0  0
    4.6887    2.7590   -2.6876 C   0  0  1  0  0  0  0  0  0  0  0  0
    4.1877    2.2436   -1.3068 C   0  0  1  0  0  0  0  0  0  0  0  0
    3.2566    2.9215   -0.8535 C   0  0  0  0  0  0  0  0  0  0  0  0
    2.9413    6.4805   -4.0769 C   0  0  1  0  0  0  0  0  0  0  0  0
    1.6552    6.8923   -4.3623 C   0  0  1  0  0  0  0  0  0  0  0  0
    1.7357    7.4817   -5.7884 C   0  0  1  0  0  0  0  0  0  0  0  0
    2.9886    7.6808   -6.5223 C   0  0  1  0  0  0  0  0  0  0  0  0
    4.2679    7.0155   -5.6326 C   0  0  2  0  0  0  0  0  0  0  0  0
    5.8621    7.2560   -6.5669 C   0  0  0  0  0  0  0  0  0  0  0  0
    8.2313   -1.4409   -1.6282 N   0  0  0  0  0  0  0  0  0  0  0  0
    4.9472    1.0315   -1.0418 N   0  0  0  0  0  0  0  0  0  0  0  0
    1.8874    5.1473   -1.1078 N   0  0  0  0  0  0  0  0  0  0  0  0
    0.2636    7.6924   -6.1734 N   0  0  0  0  0  0  0  0  0  0  0  0
    7.0135    0.6468   -2.9872 O   0  0  0  0  0  0  0  0  0  0  0  0
    7.0233    0.5158   -7.1623 O   0  0  0  0  0  0  0  0  0  0  0  0
    8.5181   -1.1733   -5.5583 O   0  0  0  0  0  0  0  0  0  0  0  0
    5.3368    2.1028   -3.4826 O   0  0  0  0  0  0  0  0  0  0  0  0
    5.1350    4.1276   -4.7494 O   0  0  0  0  0  0  0  0  0  0  0  0
    2.8349    5.4089   -3.2550 O   0  0  0  0  0  0  0  0  0  0  0  0
    4.5774    6.3389   -4.6639 O   0  0  0  0  0  0  0  0  0  0  0  0
    0.6840    6.5155   -3.1232 O   0  0  0  0  0  0  0  0  0  0  0  0
    2.8732    7.8884   -7.8153 O   0  0  0  0  0  0  0  0  0  0  0  0
    6.8761    6.6681   -7.0324 O   0  0  0  0  0  0  0  0  0  0  0  0
    5.4458    2.6915   -5.7197 N   0  0  0  0  0  0  0  0  0  0  0  0
  1  2  1  0
  1 23  1  0
  1 26  1  6
  2  3  1  0
  2 33  1  6
  3  4  1  0
  3 24  1  6
  5  4  1  0
  4 25  1  6
  5  6  1  1
 23  5  1  0
  6 19  1  0
  8  7  1  0
  7 12  1  0
  7 21  1  1
  8  9  1  0
  8 28  1  6
  9 10  1  0
  9 27  1  1
 10 11  1  0
 10 26  1  6
 12 11  1  0
 11 20  1  1
 13 14  1  0
 13 28  1  6
 13 29  1  0
 14 15  1  0
 14 30  1  6
 15 16  1  0
 15 22  1  1
 16 17  1  0
 16 31  1  6
 17 18  1  1
 17 29  1  0
 18 32  1  0
M  CHG  5  19   1  20   1  21   1  22   1  33   1
M  END
$$$$
6np5_ligand
     RDKit          3D

 33 35  0  0  0  0  0  0  0  0999 V2000
    6.2922    1.3816   -3.5699 C   0  0  2  0  0  0  0  0  0  0  0  0
    6.5396    1.4592   -5.0337 C   0  0  2  0  0  0  0  0  0  0  0  0
    7.2072    0.7003   -5.4864 C   0  0  2  0  0  0  0  0  0  0  0  0
    8.1872   -0.3636   -4.9779 C   0  0  1  0  0  0  0  0  0  0  0  0
    7.5827   -0.3586   -3.3594 C   0  0  1  0  0  0  0  0  0  0  0  0
    7.8501   -1.2494   -2.2570 C   0  0  0  0  0  0  0  0  0  0  0  0
    2.6336    4.2460   -1.0881 C   0  0  2  0  0  0  0  0  0  0  0  0
    3.2013    4.5233   -2.4399 C   0  0  1  0  0  0  0  0  0  0  0  0
    4.2572    3.7586   -3.0123 C   0  0  2  0  0  0  0  0  0  0  0  0
    4.6190    2.8899   -2.3567 C   0  0  1  0  0  0  0  0  0  0  0  0
    4.1010    2.4911   -0.9367 C   0  0  1  0  0  0  0  0  0  0  0  0
    3.2051    3.1399   -0.5651 C   0  0  0  0  0  0  0  0  0  0  0  0
    2.6319    6.4341   -4.0148 C   0  0  1  0  0  0  0  0  0  0  0  0
    1.3453    6.8680   -4.3904 C   0  0  1  0  0  0  0  0  0  0  0  0
    1.4586    7.2118   -5.8982 C   0  0  2  0  0  0  0  0  0  0  0  0
    2.7314    7.2789   -6.7850 C   0  0  1  0  0  0  0  0  0  0  0  0
    3.9282    6.6184   -5.7089 C   0  0  1  0  0  0  0  0  0  0  0  0
    5.2622    6.7559   -6.6087 C   0  0  0  0  0  0  0  0  0  0  0  0
    7.9978   -1.6249   -1.2903 N   0  0  0  0  0  0  0  0  0  0  0  0
    4.7273    1.3083   -0.6548 N   0  0  0  0  0  0  0  0  0  0  0  0
    1.6224    5.3438   -1.0712 N   0  0  0  0  0  0  0  0  0  0  0  0
    0.0521    7.5894   -6.4426 N   0  0  0  0  0  0  0  0  0  0  0  0
    6.9268    0.4264   -2.6770 O   0  0  0  0  0  0  0  0  0  0  0  0
    7.4357    0.8257   -6.8493 O   0  0  0  0  0  0  0  0  0  0  0  0
    8.8207   -1.2023   -5.1146 O   0  0  0  0  0  0  0  0  0  0  0  0
    5.4303    2.1478   -3.1557 O   0  0  0  0  0  0  0  0  0  0  0  0
    4.9711    4.0284   -4.4620 O   0  0  0  0  0  0  0  0  0  0  0  0
    2.6355    5.3514   -3.1390 O   0  0  0  0  0  0  0  0  0  0  0  0
    4.1764    6.2256   -4.5711 O   0  0  0  0  0  0  0  0  0  0  0  0
    0.4447    6.6951   -3.2355 O   0  0  0  0  0  0  0  0  0  0  0  0
    2.6252    7.2216   -8.1638 O   0  0  0  0  0  0  0  0  0  0  0  0
    6.1520    6.8687   -6.7732 O   0  0  0  0  0  0  0  0  0  0  0  0
    5.9245    2.8200   -5.4522 N   0  0  0  0  0  0  0  0  0  0  0  0
  1  2  1  0
  1 23  1  0
  1 26  1  6
  2  3  1  0
  2 33  1  6
  3  4  1  0
  3 24  1  6
  5  4  1  0
  4 25  1  6
  5  6  1  1
 23  5  1  0
  6 19  1  0
  8  7  1  0
  7 12  1  0
  7 21  1  1
  8  9  1  0
  8 28  1  6
  9 10  1  0
  9 27  1  1
 10 11  1  0
 10 26  1  6
 12 11  1  0
 11 20  1  1
 13 14  1  0
 13 28  1  6
 13 29  1  0
 14 15  1  0
 14 30  1  6
 15 16  1  0
 15 22  1  1
 16 17  1  0
 16 31  1  6
 17 18  1  1
 17 29  1  0
 18 32  1  0
M  CHG  5  19   1  20   1  21   1  22   1  33   1
M  END
$$$$
6np5_ligand
     RDKit          3D

 33 35  0  0  0  0  0  0  0  0999 V2000
    6.4331    0.9388   -3.4690 C   0  0  2  0  0  0  0  0  0  0  0  0
    6.7420    1.1869   -5.1362 C   0  0  2  0  0  0  0  0  0  0  0  0
    7.6834    0.9435   -5.3718 C   0  0  1  0  0  0  0  0  0  0  0  0
    8.5412   -0.0805   -4.6086 C   0  0  2  0  0  0  0  0  0  0  0  0
    7.9239   -0.2934   -3.1401 C   0  0  2  0  0  0  0  0  0  0  0  0
    8.1915   -1.1896   -1.8578 C   0  0  0  0  0  0  0  0  0  0  0  0
    2.6431    3.7740   -1.0364 C   0  0  2  0  0  0  0  0  0  0  0  0
    3.4325    4.3403   -2.2972 C   0  0  1  0  0  0  0  0  0  0  0  0
    4.4390    3.4855   -2.9125 C   0  0  2  0  0  0  0  0  0  0  0  0
    4.6000    2.3652   -2.2813 C   0  0  1  0  0  0  0  0  0  0  0  0
    3.8016    1.7771   -1.1409 C   0  0  2  0  0  0  0  0  0  0  0  0
    2.9775    2.5636   -0.7068 C   0  0  0  0  0  0  0  0  0  0  0  0
    3.0843    6.5866   -3.3585 C   0  0  1  0  0  0  0  0  0  0  0  0
    1.8375    7.2288   -3.7248 C   0  0  2  0  0  0  0  0  0  0  0  0
    1.7644    7.6644   -5.0621 C   0  0  1  0  0  0  0  0  0  0  0  0
    3.0805    7.7693   -6.1175 C   0  0  1  0  0  0  0  0  0  0  0  0
    4.3475    7.2344   -5.0291 C   0  0  2  0  0  0  0  0  0  0  0  0
    5.7982    7.6377   -5.8249 C   0  0  0  0  0  0  0  0  0  0  0  0
    8.1785   -1.5225   -0.8287 N   0  0  0  0  0  0  0  0  0  0  0  0
    4.4498    0.5606   -0.7542 N   0  0  0  0  0  0  0  0  0  0  0  0
    1.7402    4.9664   -0.7364 N   0  0  0  0  0  0  0  0  0  0  0  0
    0.4209    8.0496   -5.5645 N   0  0  0  0  0  0  0  0  0  0  0  0
    6.8994    0.1027   -2.4503 O   0  0  0  0  0  0  0  0  0  0  0  0
    7.8240    1.2891   -6.7175 O   0  0  0  0  0  0  0  0  0  0  0  0
    9.6281   -0.1962   -4.7500 O   0  0  0  0  0  0  0  0  0  0  0  0
    5.5047    1.6083   -3.0658 O   0  0  0  0  0  0  0  0  0  0  0  0
    5.2547    3.9388   -4.0489 O   0  0  0  0  0  0  0  0  0  0  0  0
    3.0243    5.4180   -2.8242 O   0  0  0  0  0  0  0  0  0  0  0  0
    4.5891    6.5555   -4.0255 O   0  0  0  0  0  0  0  0  0  0  0  0
    1.2455    7.1723   -2.4162 O   0  0  0  0  0  0  0  0  0  0  0  0
    2.9320    7.6068   -7.2543 O   0  0  0  0  0  0  0  0  0  0  0  0
    6.2605    7.9244   -6.2854 O   0  0  0  0  0  0  0  0  0  0  0  0
    5.4402    2.0162   -5.6482 N   0  0  0  0  0  0  0  0  0  0  0  0
  1  2  1  0
  1 23  1  0
  1 26  1  6
  2  3  1  0
  2 33  1  6
  3  4  1  0
  3 24  1  1
  5  4  1  0
  4 25  1  6
  5  6  1  1
 23  5  1  0
  6 19  1  0
  8  7  1  0
  7 12  1  0
  7 21  1  1
  8  9  1  0
  8 28  1  6
  9 10  1  0
  9 27  1  1
 10 11  1  0
 10 26  1  6
 12 11  1  0
 11 20  1  1
 13 14  1  0
 13 28  1  6
 13 29  1  0
 14 15  1  0
 14 30  1  6
 15 16  1  0
 15 22  1  1
 16 17  1  0
 16 31  1  6
 17 18  1  1
 17 29  1  0
 18 32  1  0
M  CHG  5  19   1  20   1  21   1  22   1  33   1
M  END
$$$$
6np5_ligand
     RDKit          3D

 33 35  0  0  0  0  0  0  0  0999 V2000
    6.7050    1.8948   -3.6595 C   0  0  2  0  0  0  0  0  0  0  0  0
    7.0921    2.1133   -5.1252 C   0  0  1  0  0  0  0  0  0  0  0  0
    8.0696    1.8496   -5.4379 C   0  0  1  0  0  0  0  0  0  0  0  0
    8.9163    1.1018   -4.9556 C   0  0  2  0  0  0  0  0  0  0  0  0
    8.1828    0.6488   -3.5136 C   0  0  1  0  0  0  0  0  0  0  0  0
    8.8233   -0.3554   -2.3387 C   0  0  0  0  0  0  0  0  0  0  0  0
    2.4914    4.2601   -1.0553 C   0  0  1  0  0  0  0  0  0  0  0  0
    3.3262    4.9648   -2.1853 C   0  0  1  0  0  0  0  0  0  0  0  0
    4.4455    4.2349   -2.8746 C   0  0  2  0  0  0  0  0  0  0  0  0
    4.6884    3.1687   -2.3160 C   0  0  1  0  0  0  0  0  0  0  0  0
    3.8228    2.3699   -1.3678 C   0  0  2  0  0  0  0  0  0  0  0  0
    2.9838    3.2094   -0.8843 C   0  0  0  0  0  0  0  0  0  0  0  0
    2.7579    7.1358   -3.2569 C   0  0  1  0  0  0  0  0  0  0  0  0
    1.5557    7.8467   -3.5095 C   0  0  2  0  0  0  0  0  0  0  0  0
    1.5566    8.4956   -4.8210 C   0  0  2  0  0  0  0  0  0  0  0  0
    2.8789    8.8900   -5.7185 C   0  0  1  0  0  0  0  0  0  0  0  0
    4.0951    8.1202   -4.7628 C   0  0  2  0  0  0  0  0  0  0  0  0
    5.5336    8.6361   -5.4527 C   0  0  0  0  0  0  0  0  0  0  0  0
    8.5848   -0.9353   -1.4721 N   0  0  0  0  0  0  0  0  0  0  0  0
    4.8941    1.1877   -1.0965 N   0  0  0  0  0  0  0  0  0  0  0  0
    1.5952    5.2742   -0.8002 N   0  0  0  0  0  0  0  0  0  0  0  0
    0.3143    9.0351   -5.2751 N   0  0  0  0  0  0  0  0  0  0  0  0
    7.1915    0.9862   -2.8183 O   0  0  0  0  0  0  0  0  0  0  0  0
    8.3757    2.4066   -6.6081 O   0  0  0  0  0  0  0  0  0  0  0  0
    9.8999    0.9466   -5.2297 O   0  0  0  0  0  0  0  0  0  0  0  0
    5.4902    2.4227   -3.3296 O   0  0  0  0  0  0  0  0  0  0  0  0
    5.5219    4.7304   -3.9689 O   0  0  0  0  0  0  0  0  0  0  0  0
    2.8136    6.0123   -2.5813 O   0  0  0  0  0  0  0  0  0  0  0  0
    4.2303    7.2963   -3.8736 O   0  0  0  0  0  0  0  0  0  0  0  0
    1.0776    7.8367   -2.3130 O   0  0  0  0  0  0  0  0  0  0  0  0
    2.7366    8.9871   -6.8662 O   0  0  0  0  0  0  0  0  0  0  0  0
    6.2811    9.0348   -5.9916 O   0  0  0  0  0  0  0  0  0  0  0  0
    5.6506    2.6869   -5.7418 N   0  0  0  0  0  0  0  0  0  0  0  0
  1  2  1  0
  1 23  1  0
  1 26  1  6
  2  3  1  0
  2 33  1  6
  3  4  1  0
  3 24  1  1
  5  4  1  0
  4 25  1  6
  5  6  1  1
 23  5  1  0
  6 19  1  0
  8  7  1  0
  7 12  1  0
  7 21  1  1
  8  9  1  0
  8 28  1  6
  9 10  1  0
  9 27  1  1
 10 11  1  0
 10 26  1  6
 12 11  1  0
 11 20  1  1
 13 14  1  0
 13 28  1  6
 13 29  1  0
 14 15  1  0
 14 30  1  6
 15 16  1  0
 15 22  1  1
 16 17  1  0
 16 31  1  6
 17 18  1  1
 17 29  1  0
 18 32  1  0
M  CHG  5  19   1  20   1  21   1  22   1  33   1
M  END
$$$$
6np5_ligand
     RDKit          3D

 33 35  0  0  0  0  0  0  0  0999 V2000
    7.0096    1.5535   -3.6825 C   0  0  2  0  0  0  0  0  0  0  0  0
    7.3534    1.8307   -5.0659 C   0  0  1  0  0  0  0  0  0  0  0  0
    8.2828    1.1989   -5.3167 C   0  0  2  0  0  0  0  0  0  0  0  0
    9.1480    0.6824   -4.7115 C   0  0  1  0  0  0  0  0  0  0  0  0
    8.2622    0.0665   -3.4490 C   0  0  1  0  0  0  0  0  0  0  0  0
    8.7536   -1.2007   -2.2617 C   0  0  0  0  0  0  0  0  0  0  0  0
    2.7491    3.6169   -0.8036 C   0  0  2  0  0  0  0  0  0  0  0  0
    3.4603    4.2942   -2.0095 C   0  0  2  0  0  0  0  0  0  0  0  0
    4.9132    3.7760   -2.6813 C   0  0  1  0  0  0  0  0  0  0  0  0
    4.8815    2.5860   -2.2884 C   0  0  1  0  0  0  0  0  0  0  0  0
    4.0287    1.7529   -1.3805 C   0  0  2  0  0  0  0  0  0  0  0  0
    3.0724    2.4647   -0.8881 C   0  0  0  0  0  0  0  0  0  0  0  0
    3.1892    6.5058   -2.9269 C   0  0  1  0  0  0  0  0  0  0  0  0
    1.9784    7.3852   -3.4281 C   0  0  1  0  0  0  0  0  0  0  0  0
    2.2736    7.7211   -4.7775 C   0  0  2  0  0  0  0  0  0  0  0  0
    3.7803    7.6502   -5.5131 C   0  0  1  0  0  0  0  0  0  0  0  0
    4.7604    6.8980   -4.5363 C   0  0  1  0  0  0  0  0  0  0  0  0
    6.0656    7.0012   -4.9880 C   0  0  0  0  0  0  0  0  0  0  0  0
    8.2859   -1.9191   -1.3463 N   0  0  0  0  0  0  0  0  0  0  0  0
    4.8591    0.5010   -1.1924 N   0  0  0  0  0  0  0  0  0  0  0  0
    1.5921    4.6394   -0.5220 N   0  0  0  0  0  0  0  0  0  0  0  0
    0.9033    8.4566   -5.4799 N   0  0  0  0  0  0  0  0  0  0  0  0
    7.3587    0.4797   -2.8551 O   0  0  0  0  0  0  0  0  0  0  0  0
    8.6378    1.9098   -6.5853 O   0  0  0  0  0  0  0  0  0  0  0  0
   10.0260    0.0859   -4.9589 O   0  0  0  0  0  0  0  0  0  0  0  0
    5.6773    1.9655   -3.4092 O   0  0  0  0  0  0  0  0  0  0  0  0
    5.8460    4.3382   -3.6250 O   0  0  0  0  0  0  0  0  0  0  0  0
    2.9672    5.3934   -2.4233 O   0  0  0  0  0  0  0  0  0  0  0  0
    4.5978    6.5732   -3.7070 O   0  0  0  0  0  0  0  0  0  0  0  0
    0.8304    7.2092   -2.4637 O   0  0  0  0  0  0  0  0  0  0  0  0
    3.7129    7.5284   -6.7594 O   0  0  0  0  0  0  0  0  0  0  0  0
    7.0445    7.2744   -3.8574 O   0  0  0  0  0  0  0  0  0  0  0  0
    5.8940    2.5233   -5.7846 N   0  0  0  0  0  0  0  0  0  0  0  0
  1  2  1  0
  1 23  1  0
  1 26  1  6
  2  3  1  0
  2 33  1  6
  3  4  1  0
  3 24  1  6
  5  4  1  0
  4 25  1  6
  5  6  1  1
 23  5  1  0
  6 19  1  0
  8  7  1  0
  7 12  1  0
  7 21  1  1
  8  9  1  0
  8 28  1  6
  9 10  1  0
  9 27  1  1
 10 11  1  0
 10 26  1  6
 12 11  1  0
 11 20  1  1
 13 14  1  0
 13 28  1  6
 13 29  1  0
 14 15  1  0
 14 30  1  6
 15 16  1  0
 15 22  1  1
 16 17  1  0
 16 31  1  6
 17 18  1  1
 17 29  1  0
 18 32  1  0
M  CHG  5  19   1  20   1  21   1  22   1  33   1
M  END
$$$$
6np5_ligand
     RDKit          3D

 33 35  0  0  0  0  0  0  0  0999 V2000
    6.7953    1.6168   -3.8122 C   0  0  2  0  0  0  0  0  0  0  0  0
    7.2979    2.0095   -5.0849 C   0  0  1  0  0  0  0  0  0  0  0  0
    7.9531    1.3669   -5.6756 C   0  0  2  0  0  0  0  0  0  0  0  0
    8.9017    0.4991   -4.7329 C   0  0  1  0  0  0  0  0  0  0  0  0
    7.8969   -0.0122   -3.5903 C   0  0  1  0  0  0  0  0  0  0  0  0
    8.3242   -0.9989   -2.5878 C   0  0  0  0  0  0  0  0  0  0  0  0
    2.8449    3.8476   -0.7592 C   0  0  1  0  0  0  0  0  0  0  0  0
    3.5381    4.3839   -1.8050 C   0  0  1  0  0  0  0  0  0  0  0  0
    4.5001    3.5196   -2.8122 C   0  0  2  0  0  0  0  0  0  0  0  0
    4.8405    2.6929   -2.3743 C   0  0  1  0  0  0  0  0  0  0  0  0
    3.9382    1.7436   -1.4564 C   0  0  2  0  0  0  0  0  0  0  0  0
    3.3737    2.5872   -0.6633 C   0  0  0  0  0  0  0  0  0  0  0  0
    3.2275    6.6422   -2.7425 C   0  0  1  0  0  0  0  0  0  0  0  0
    2.0238    7.3902   -3.2891 C   0  0  1  0  0  0  0  0  0  0  0  0
    2.4730    7.6719   -4.6904 C   0  0  2  0  0  0  0  0  0  0  0  0
    3.9374    8.2210   -4.9190 C   0  0  1  0  0  0  0  0  0  0  0  0
    4.6808    7.2541   -4.1559 C   0  0  1  0  0  0  0  0  0  0  0  0
    6.4059    7.5995   -4.5571 C   0  0  0  0  0  0  0  0  0  0  0  0
    8.0973   -1.5943   -1.6485 N   0  0  0  0  0  0  0  0  0  0  0  0
    4.6108    0.4380   -1.5010 N   0  0  0  0  0  0  0  0  0  0  0  0
    2.2082    5.0084   -0.1776 N   0  0  0  0  0  0  0  0  0  0  0  0
    1.0653    8.5056   -5.2984 N   0  0  0  0  0  0  0  0  0  0  0  0
    7.2759    0.6486   -2.9243 O   0  0  0  0  0  0  0  0  0  0  0  0
    8.6204    1.8802   -6.8143 O   0  0  0  0  0  0  0  0  0  0  0  0
    9.6694   -0.3342   -5.1812 O   0  0  0  0  0  0  0  0  0  0  0  0
    5.4830    2.0852   -3.5200 O   0  0  0  0  0  0  0  0  0  0  0  0
    5.5482    4.2801   -3.9876 O   0  0  0  0  0  0  0  0  0  0  0  0
    2.8996    5.4057   -2.1297 O   0  0  0  0  0  0  0  0  0  0  0  0
    4.6950    6.9025   -3.3002 O   0  0  0  0  0  0  0  0  0  0  0  0
    0.7159    6.8525   -2.7820 O   0  0  0  0  0  0  0  0  0  0  0  0
    3.7985    8.7162   -5.9990 O   0  0  0  0  0  0  0  0  0  0  0  0
    7.3885    7.5931   -3.8558 O   0  0  0  0  0  0  0  0  0  0  0  0
    5.9430    2.8026   -5.9041 N   0  0  0  0  0  0  0  0  0  0  0  0
  1  2  1  0
  1 23  1  0
  1 26  1  6
  2  3  1  0
  2 33  1  6
  3  4  1  0
  3 24  1  6
  5  4  1  0
  4 25  1  6
  5  6  1  1
 23  5  1  0
  6 19  1  0
  8  7  1  0
  7 12  1  0
  7 21  1  1
  8  9  1  0
  8 28  1  6
  9 10  1  0
  9 27  1  1
 10 11  1  0
 10 26  1  6
 12 11  1  0
 11 20  1  1
 13 14  1  0
 13 28  1  6
 13 29  1  0
 14 15  1  0
 14 30  1  6
 15 16  1  0
 15 22  1  1
 16 17  1  0
 16 31  1  6
 17 18  1  1
 17 29  1  0
 18 32  1  0
M  CHG  5  19   1  20   1  21   1  22   1  33   1
M  END
$$$$
6np5_ligand
     RDKit          3D

 33 35  0  0  0  0  0  0  0  0999 V2000
    6.6546    1.2724   -4.0884 C   0  0  2  0  0  0  0  0  0  0  0  0
    7.0044    1.6566   -5.4436 C   0  0  1  0  0  0  0  0  0  0  0  0
    7.8241    1.0054   -5.9635 C   0  0  2  0  0  0  0  0  0  0  0  0
    8.7454    0.2854   -5.1435 C   0  0  1  0  0  0  0  0  0  0  0  0
    7.8655   -0.3056   -4.0019 C   0  0  1  0  0  0  0  0  0  0  0  0
    8.5300   -1.2528   -3.1635 C   0  0  0  0  0  0  0  0  0  0  0  0
    3.0048    3.5119   -0.7738 C   0  0  2  0  0  0  0  0  0  0  0  0
    3.6017    3.9045   -2.0412 C   0  0  1  0  0  0  0  0  0  0  0  0
    4.5103    3.1996   -2.9215 C   0  0  2  0  0  0  0  0  0  0  0  0
    4.5350    2.0575   -2.6114 C   0  0  1  0  0  0  0  0  0  0  0  0
    3.5789    1.3106   -1.7628 C   0  0  2  0  0  0  0  0  0  0  0  0
    3.1379    2.0357   -0.9314 C   0  0  0  0  0  0  0  0  0  0  0  0
    3.6142    6.2344   -2.7309 C   0  0  1  0  0  0  0  0  0  0  0  0
    2.4867    7.0156   -3.1252 C   0  0  1  0  0  0  0  0  0  0  0  0
    2.7357    7.4207   -4.4211 C   0  0  2  0  0  0  0  0  0  0  0  0
    4.2990    8.0772   -4.7234 C   0  0  1  0  0  0  0  0  0  0  0  0
    5.1193    6.8984   -4.1467 C   0  0  1  0  0  0  0  0  0  0  0  0
    6.8861    7.1962   -4.5067 C   0  0  0  0  0  0  0  0  0  0  0  0
    8.2057   -1.9515   -2.3362 N   0  0  0  0  0  0  0  0  0  0  0  0
    3.9117   -0.1306   -2.0050 N   0  0  0  0  0  0  0  0  0  0  0  0
    2.5909    4.8089   -0.1629 N   0  0  0  0  0  0  0  0  0  0  0  0
    1.3869    8.4197   -4.7244 N   0  0  0  0  0  0  0  0  0  0  0  0
    7.2637    0.2617   -3.2557 O   0  0  0  0  0  0  0  0  0  0  0  0
    8.3435    1.6376   -7.1442 O   0  0  0  0  0  0  0  0  0  0  0  0
    9.4791   -0.6259   -5.5679 O   0  0  0  0  0  0  0  0  0  0  0  0
    5.3256    1.7161   -3.7702 O   0  0  0  0  0  0  0  0  0  0  0  0
    5.6218    3.7440   -4.1385 O   0  0  0  0  0  0  0  0  0  0  0  0
    3.1917    4.9773   -2.2875 O   0  0  0  0  0  0  0  0  0  0  0  0
    5.0420    6.5517   -3.4774 O   0  0  0  0  0  0  0  0  0  0  0  0
    1.1989    6.5408   -2.6511 O   0  0  0  0  0  0  0  0  0  0  0  0
    4.2718    8.3374   -5.9791 O   0  0  0  0  0  0  0  0  0  0  0  0
    7.5270    7.6629   -3.4759 O   0  0  0  0  0  0  0  0  0  0  0  0
    5.4245    2.2976   -6.0695 N   0  0  0  0  0  0  0  0  0  0  0  0
  1  2  1  0
  1 23  1  0
  1 26  1  6
  2  3  1  0
  2 33  1  6
  3  4  1  0
  3 24  1  6
  5  4  1  0
  4 25  1  6
  5  6  1  1
 23  5  1  0
  6 19  1  0
  8  7  1  0
  7 12  1  0
  7 21  1  1
  8  9  1  0
  8 28  1  6
  9 10  1  0
  9 27  1  1
 10 11  1  0
 10 26  1  6
 12 11  1  0
 11 20  1  1
 13 14  1  0
 13 28  1  6
 13 29  1  0
 14 15  1  0
 14 30  1  6
 15 16  1  0
 15 22  1  1
 16 17  1  0
 16 31  1  6
 17 18  1  1
 17 29  1  0
 18 32  1  0
M  CHG  5  19   1  20   1  21   1  22   1  33   1
M  END
$$$$
6np5_ligand
     RDKit          3D

 33 35  0  0  0  0  0  0  0  0999 V2000
    6.6788    1.5929   -4.1741 C   0  0  2  0  0  0  0  0  0  0  0  0
    7.0138    1.8503   -5.4719 C   0  0  1  0  0  0  0  0  0  0  0  0
    7.7039    1.0969   -6.0897 C   0  0  2  0  0  0  0  0  0  0  0  0
    8.7579    0.4527   -5.2180 C   0  0  1  0  0  0  0  0  0  0  0  0
    7.8235    0.0350   -3.9618 C   0  0  1  0  0  0  0  0  0  0  0  0
    8.5595   -0.9370   -2.9560 C   0  0  0  0  0  0  0  0  0  0  0  0
    3.0338    4.0769   -1.0208 C   0  0  1  0  0  0  0  0  0  0  0  0
    3.9185    4.5337   -2.0712 C   0  0  1  0  0  0  0  0  0  0  0  0
    4.4933    3.7499   -3.1426 C   0  0  2  0  0  0  0  0  0  0  0  0
    4.9535    2.5282   -2.5784 C   0  0  1  0  0  0  0  0  0  0  0  0
    3.9465    1.8090   -1.6623 C   0  0  2  0  0  0  0  0  0  0  0  0
    3.6435    2.6891   -0.9663 C   0  0  0  0  0  0  0  0  0  0  0  0
    3.5843    6.5385   -2.9326 C   0  0  1  0  0  0  0  0  0  0  0  0
    2.5688    7.4485   -3.2017 C   0  0  1  0  0  0  0  0  0  0  0  0
    2.5291    7.7594   -4.5657 C   0  0  2  0  0  0  0  0  0  0  0  0
    3.9126    8.2345   -5.0916 C   0  0  1  0  0  0  0  0  0  0  0  0
    4.7656    6.9059   -4.7103 C   0  0  1  0  0  0  0  0  0  0  0  0
    6.4498    6.9413   -5.3734 C   0  0  0  0  0  0  0  0  0  0  0  0
    8.0841   -1.5987   -1.9738 N   0  0  0  0  0  0  0  0  0  0  0  0
    4.7541    0.3375   -1.9456 N   0  0  0  0  0  0  0  0  0  0  0  0
    2.6570    5.3905   -0.4489 N   0  0  0  0  0  0  0  0  0  0  0  0
    1.3539    9.0183   -4.8080 N   0  0  0  0  0  0  0  0  0  0  0  0
    7.3650    0.7728   -3.3116 O   0  0  0  0  0  0  0  0  0  0  0  0
    8.0879    1.4558   -7.4880 O   0  0  0  0  0  0  0  0  0  0  0  0
    9.4903   -0.4883   -5.5873 O   0  0  0  0  0  0  0  0  0  0  0  0
    5.4578    1.7956   -3.6924 O   0  0  0  0  0  0  0  0  0  0  0  0
    5.4971    4.3890   -4.1807 O   0  0  0  0  0  0  0  0  0  0  0  0
    3.1379    5.3363   -2.4732 O   0  0  0  0  0  0  0  0  0  0  0  0
    4.7870    6.6345   -3.9876 O   0  0  0  0  0  0  0  0  0  0  0  0
    1.2681    7.1866   -2.4878 O   0  0  0  0  0  0  0  0  0  0  0  0
    3.7021    8.4461   -6.4513 O   0  0  0  0  0  0  0  0  0  0  0  0
    7.3684    6.8711   -4.5932 O   0  0  0  0  0  0  0  0  0  0  0  0
    5.5301    2.4456   -6.2606 N   0  0  0  0  0  0  0  0  0  0  0  0
  1  2  1  0
  1 23  1  0
  1 26  1  6
  2  3  1  0
  2 33  1  6
  3  4  1  0
  3 24  1  6
  5  4  1  0
  4 25  1  6
  5  6  1  1
 23  5  1  0
  6 19  1  0
  8  7  1  0
  7 12  1  0
  7 21  1  1
  8  9  1  0
  8 28  1  6
  9 10  1  0
  9 27  1  1
 10 11  1  0
 10 26  1  6
 12 11  1  0
 11 20  1  1
 13 14  1  0
 13 28  1  6
 13 29  1  0
 14 15  1  0
 14 30  1  6
 15 16  1  0
 15 22  1  1
 16 17  1  0
 16 31  1  6
 17 18  1  1
 17 29  1  0
 18 32  1  0
M  CHG  5  19   1  20   1  21   1  22   1  33   1
M  END
$$$$
6np5_ligand
     RDKit          3D

 33 35  0  0  0  0  0  0  0  0999 V2000
    6.8073    1.4306   -3.8551 C   0  0  2  0  0  0  0  0  0  0  0  0
    7.1416    1.6275   -5.1185 C   0  0  1  0  0  0  0  0  0  0  0  0
    7.6517    0.7076   -5.7756 C   0  0  2  0  0  0  0  0  0  0  0  0
    8.7268   -0.0289   -4.9285 C   0  0  1  0  0  0  0  0  0  0  0  0
    7.7534   -0.2684   -3.6153 C   0  0  1  0  0  0  0  0  0  0  0  0
    8.4945   -1.1908   -2.5242 C   0  0  0  0  0  0  0  0  0  0  0  0
    2.7485    3.8090   -1.2696 C   0  0  1  0  0  0  0  0  0  0  0  0
    3.8292    4.3768   -2.1908 C   0  0  1  0  0  0  0  0  0  0  0  0
    4.2797    3.4790   -3.1035 C   0  0  2  0  0  0  0  0  0  0  0  0
    5.0068    2.3896   -2.4020 C   0  0  1  0  0  0  0  0  0  0  0  0
    4.0518    1.7414   -1.4735 C   0  0  2  0  0  0  0  0  0  0  0  0
    3.5587    2.6122   -0.8782 C   0  0  0  0  0  0  0  0  0  0  0  0
    3.5668    6.2382   -3.1596 C   0  0  1  0  0  0  0  0  0  0  0  0
    2.5677    7.1503   -3.4663 C   0  0  1  0  0  0  0  0  0  0  0  0
    2.4548    7.3283   -4.9396 C   0  0  2  0  0  0  0  0  0  0  0  0
    3.7997    7.9097   -5.3551 C   0  0  1  0  0  0  0  0  0  0  0  0
    4.6210    6.6271   -4.9841 C   0  0  1  0  0  0  0  0  0  0  0  0
    6.2178    6.7772   -5.7906 C   0  0  0  0  0  0  0  0  0  0  0  0
    7.9352   -1.4961   -1.3813 N   0  0  0  0  0  0  0  0  0  0  0  0
    4.9283    0.3708   -1.4432 N   0  0  0  0  0  0  0  0  0  0  0  0
    2.3017    5.0624   -0.6866 N   0  0  0  0  0  0  0  0  0  0  0  0
    1.2479    8.5414   -5.2162 N   0  0  0  0  0  0  0  0  0  0  0  0
    7.4078    0.4894   -3.0209 O   0  0  0  0  0  0  0  0  0  0  0  0
    8.0058    1.0390   -7.2194 O   0  0  0  0  0  0  0  0  0  0  0  0
    9.2734   -1.0644   -5.3247 O   0  0  0  0  0  0  0  0  0  0  0  0
    5.6341    1.6465   -3.4804 O   0  0  0  0  0  0  0  0  0  0  0  0
    5.4357    4.1310   -4.1238 O   0  0  0  0  0  0  0  0  0  0  0  0
    3.0512    5.0954   -2.7744 O   0  0  0  0  0  0  0  0  0  0  0  0
    4.7378    6.3106   -4.1135 O   0  0  0  0  0  0  0  0  0  0  0  0
    1.1630    6.7450   -2.7145 O   0  0  0  0  0  0  0  0  0  0  0  0
    3.6319    8.0614   -6.7822 O   0  0  0  0  0  0  0  0  0  0  0  0
    7.2732    6.1874   -5.0398 O   0  0  0  0  0  0  0  0  0  0  0  0
    5.9559    2.4347   -6.0366 N   0  0  0  0  0  0  0  0  0  0  0  0
  1  2  1  0
  1 23  1  0
  1 26  1  6
  2  3  1  0
  2 33  1  6
  3  4  1  0
  3 24  1  6
  5  4  1  0
  4 25  1  6
  5  6  1  1
 23  5  1  0
  6 19  1  0
  8  7  1  0
  7 12  1  0
  7 21  1  1
  8  9  1  0
  8 28  1  6
  9 10  1  0
  9 27  1  6
 10 11  1  0
 10 26  1  6
 12 11  1  0
 11 20  1  1
 13 14  1  0
 13 28  1  6
 13 29  1  0
 14 15  1  0
 14 30  1  6
 15 16  1  0
 15 22  1  1
 16 17  1  0
 16 31  1  6
 17 18  1  1
 17 29  1  0
 18 32  1  0
M  CHG  5  19   1  20   1  21   1  22   1  33   1
M  END
$$$$
6np5_ligand
     RDKit          3D

 33 35  0  0  0  0  0  0  0  0999 V2000
    6.7320    1.1594   -3.6971 C   0  0  2  0  0  0  0  0  0  0  0  0
    7.1270    1.4941   -4.9876 C   0  0  1  0  0  0  0  0  0  0  0  0
    7.8938    0.8754   -5.6301 C   0  0  2  0  0  0  0  0  0  0  0  0
    8.9008    0.1056   -4.7281 C   0  0  1  0  0  0  0  0  0  0  0  0
    7.9653   -0.4534   -3.5561 C   0  0  1  0  0  0  0  0  0  0  0  0
    8.5881   -1.4602   -2.6268 C   0  0  0  0  0  0  0  0  0  0  0  0
    2.9279    3.9526   -1.3155 C   0  0  1  0  0  0  0  0  0  0  0  0
    4.0416    4.4575   -2.3201 C   0  0  1  0  0  0  0  0  0  0  0  0
    4.2700    3.3249   -3.1308 C   0  0  2  0  0  0  0  0  0  0  0  0
    4.9644    2.2770   -2.4205 C   0  0  1  0  0  0  0  0  0  0  0  0
    3.8409    1.7402   -1.5698 C   0  0  2  0  0  0  0  0  0  0  0  0
    3.5673    2.7953   -0.8694 C   0  0  0  0  0  0  0  0  0  0  0  0
    3.8408    6.2431   -3.4649 C   0  0  1  0  0  0  0  0  0  0  0  0
    2.9442    7.2915   -3.5673 C   0  0  1  0  0  0  0  0  0  0  0  0
    2.5652    7.5096   -5.0243 C   0  0  2  0  0  0  0  0  0  0  0  0
    3.9176    7.7629   -5.6709 C   0  0  1  0  0  0  0  0  0  0  0  0
    4.5169    6.2898   -5.5154 C   0  0  1  0  0  0  0  0  0  0  0  0
    5.9994    6.1740   -6.4200 C   0  0  0  0  0  0  0  0  0  0  0  0
    8.1449   -2.1093   -1.7888 N   0  0  0  0  0  0  0  0  0  0  0  0
    4.5790    0.4531   -1.1782 N   0  0  0  0  0  0  0  0  0  0  0  0
    2.8180    5.4408   -0.6800 N   0  0  0  0  0  0  0  0  0  0  0  0
    1.6376    8.9097   -5.0083 N   0  0  0  0  0  0  0  0  0  0  0  0
    7.1809    0.1302   -2.9300 O   0  0  0  0  0  0  0  0  0  0  0  0
    8.3224    1.4337   -6.9017 O   0  0  0  0  0  0  0  0  0  0  0  0
    9.7869   -0.6171   -5.1534 O   0  0  0  0  0  0  0  0  0  0  0  0
    5.4160    1.3847   -3.5152 O   0  0  0  0  0  0  0  0  0  0  0  0
    5.5310    3.9765   -4.2065 O   0  0  0  0  0  0  0  0  0  0  0  0
    3.3091    5.1876   -2.8234 O   0  0  0  0  0  0  0  0  0  0  0  0
    4.7359    5.9961   -4.6266 O   0  0  0  0  0  0  0  0  0  0  0  0
    1.6408    7.1544   -2.6169 O   0  0  0  0  0  0  0  0  0  0  0  0
    3.4337    7.9789   -7.0367 O   0  0  0  0  0  0  0  0  0  0  0  0
    6.7550    5.3470   -5.9943 O   0  0  0  0  0  0  0  0  0  0  0  0
    5.9474    2.1734   -5.8774 N   0  0  0  0  0  0  0  0  0  0  0  0
  1  2  1  0
  1 23  1  0
  1 26  1  6
  2  3  1  0
  2 33  1  6
  3  4  1  0
  3 24  1  6
  5  4  1  0
  4 25  1  6
  5  6  1  1
 23  5  1  0
  6 19  1  0
  8  7  1  0
  7 12  1  0
  7 21  1  1
  8  9  1  0
  8 28  1  6
  9 10  1  0
  9 27  1  6
 10 11  1  0
 10 26  1  6
 12 11  1  0
 11 20  1  1
 13 14  1  0
 13 28  1  6
 13 29  1  0
 14 15  1  0
 14 30  1  1
 15 16  1  0
 15 22  1  1
 16 17  1  0
 16 31  1  6
 17 18  1  6
 17 29  1  0
 18 32  1  0
M  CHG  5  19   1  20   1  21   1  22   1  33   1
M  END
$$$$
6np5_ligand
     RDKit          3D

 33 35  0  0  0  0  0  0  0  0999 V2000
    7.1008    1.1043   -3.5319 C   0  0  2  0  0  0  0  0  0  0  0  0
    7.5172    1.5399   -4.7645 C   0  0  1  0  0  0  0  0  0  0  0  0
    8.3606    0.7642   -5.3593 C   0  0  2  0  0  0  0  0  0  0  0  0
    9.2043   -0.0061   -4.3304 C   0  0  1  0  0  0  0  0  0  0  0  0
    8.1905   -0.7031   -3.4154 C   0  0  1  0  0  0  0  0  0  0  0  0
    8.8053   -1.6996   -2.4315 C   0  0  0  0  0  0  0  0  0  0  0  0
    3.1169    3.7876   -1.7137 C   0  0  1  0  0  0  0  0  0  0  0  0
    4.2973    4.3517   -2.5620 C   0  0  1  0  0  0  0  0  0  0  0  0
    4.7545    3.1580   -3.3060 C   0  0  2  0  0  0  0  0  0  0  0  0
    5.2961    2.2072   -2.4958 C   0  0  1  0  0  0  0  0  0  0  0  0
    4.1440    1.6418   -1.7521 C   0  0  2  0  0  0  0  0  0  0  0  0
    3.6733    2.7314   -1.0643 C   0  0  0  0  0  0  0  0  0  0  0  0
    4.1315    6.1745   -3.7097 C   0  0  1  0  0  0  0  0  0  0  0  0
    3.0966    7.0944   -3.9326 C   0  0  1  0  0  0  0  0  0  0  0  0
    2.8507    7.2191   -5.3982 C   0  0  2  0  0  0  0  0  0  0  0  0
    4.2139    7.5610   -5.9693 C   0  0  1  0  0  0  0  0  0  0  0  0
    4.9991    6.1815   -5.7284 C   0  0  1  0  0  0  0  0  0  0  0  0
    6.4857    6.2297   -6.4765 C   0  0  0  0  0  0  0  0  0  0  0  0
    8.4039   -2.3188   -1.6342 N   0  0  0  0  0  0  0  0  0  0  0  0
    4.8434    0.5565   -0.8887 N   0  0  0  0  0  0  0  0  0  0  0  0
    2.6237    5.1591   -1.0622 N   0  0  0  0  0  0  0  0  0  0  0  0
    1.7600    8.4091   -5.4988 N   0  0  0  0  0  0  0  0  0  0  0  0
    7.4676   -0.0420   -2.8007 O   0  0  0  0  0  0  0  0  0  0  0  0
    8.9523    1.3991   -6.5231 O   0  0  0  0  0  0  0  0  0  0  0  0
   10.2403   -0.7680   -4.6978 O   0  0  0  0  0  0  0  0  0  0  0  0
    5.7733    1.2624   -3.5203 O   0  0  0  0  0  0  0  0  0  0  0  0
    6.1272    3.8406   -4.1604 O   0  0  0  0  0  0  0  0  0  0  0  0
    3.6473    5.0812   -3.2533 O   0  0  0  0  0  0  0  0  0  0  0  0
    5.1707    5.9944   -4.7369 O   0  0  0  0  0  0  0  0  0  0  0  0
    1.6759    6.6828   -3.2350 O   0  0  0  0  0  0  0  0  0  0  0  0
    3.7919    7.7573   -7.2967 O   0  0  0  0  0  0  0  0  0  0  0  0
    7.3622    5.7372   -5.9261 O   0  0  0  0  0  0  0  0  0  0  0  0
    6.3190    1.9916   -5.7065 N   0  0  0  0  0  0  0  0  0  0  0  0
  1  2  1  0
  1 23  1  0
  1 26  1  6
  2  3  1  0
  2 33  1  6
  3  4  1  0
  3 24  1  6
  5  4  1  0
  4 25  1  6
  5  6  1  1
 23  5  1  0
  6 19  1  0
  8  7  1  0
  7 12  1  0
  7 21  1  1
  8  9  1  0
  8 28  1  6
  9 10  1  0
  9 27  1  6
 10 11  1  0
 10 26  1  6
 12 11  1  0
 11 20  1  1
 13 14  1  0
 13 28  1  6
 13 29  1  0
 14 15  1  0
 14 30  1  1
 15 16  1  0
 15 22  1  1
 16 17  1  0
 16 31  1  6
 17 18  1  6
 17 29  1  0
 18 32  1  0
M  CHG  5  19   1  20   1  21   1  22   1  33   1
M  END
$$$$
6np5_ligand
     RDKit          3D

 33 35  0  0  0  0  0  0  0  0999 V2000
    7.0590    1.0737   -3.7940 C   0  0  2  0  0  0  0  0  0  0  0  0
    7.4662    1.4241   -5.0186 C   0  0  1  0  0  0  0  0  0  0  0  0
    8.1799    0.5324   -5.6651 C   0  0  2  0  0  0  0  0  0  0  0  0
    9.2321   -0.0703   -4.6855 C   0  0  1  0  0  0  0  0  0  0  0  0
    8.2484   -0.6916   -3.7069 C   0  0  1  0  0  0  0  0  0  0  0  0
    9.0992   -1.6394   -2.7005 C   0  0  0  0  0  0  0  0  0  0  0  0
    3.0486    3.7349   -1.7373 C   0  0  1  0  0  0  0  0  0  0  0  0
    4.1838    4.2961   -2.6469 C   0  0  1  0  0  0  0  0  0  0  0  0
    4.6616    3.1128   -3.3304 C   0  0  2  0  0  0  0  0  0  0  0  0
    5.2408    2.1514   -2.5550 C   0  0  1  0  0  0  0  0  0  0  0  0
    4.1685    1.5982   -1.7454 C   0  0  2  0  0  0  0  0  0  0  0  0
    3.6731    2.6906   -1.0722 C   0  0  0  0  0  0  0  0  0  0  0  0
    4.0983    6.0445   -3.9178 C   0  0  1  0  0  0  0  0  0  0  0  0
    3.0949    6.9925   -4.2657 C   0  0  1  0  0  0  0  0  0  0  0  0
    2.9671    7.0369   -5.7573 C   0  0  2  0  0  0  0  0  0  0  0  0
    4.3037    7.3630   -6.3091 C   0  0  1  0  0  0  0  0  0  0  0  0
    5.0171    6.0657   -5.9748 C   0  0  1  0  0  0  0  0  0  0  0  0
    6.4686    5.9973   -6.7910 C   0  0  0  0  0  0  0  0  0  0  0  0
    8.8202   -2.1033   -1.6463 N   0  0  0  0  0  0  0  0  0  0  0  0
    4.9083    0.5503   -0.8972 N   0  0  0  0  0  0  0  0  0  0  0  0
    2.3851    5.0477   -1.1706 N   0  0  0  0  0  0  0  0  0  0  0  0
    1.9211    8.2973   -6.0065 N   0  0  0  0  0  0  0  0  0  0  0  0
    7.5608   -0.0069   -3.0763 O   0  0  0  0  0  0  0  0  0  0  0  0
    8.7283    1.2229   -6.9433 O   0  0  0  0  0  0  0  0  0  0  0  0
    9.9990   -0.9475   -5.1718 O   0  0  0  0  0  0  0  0  0  0  0  0
    5.6429    1.2115   -3.6490 O   0  0  0  0  0  0  0  0  0  0  0  0
    6.0094    3.7757   -4.2322 O   0  0  0  0  0  0  0  0  0  0  0  0
    3.5582    4.9736   -3.3678 O   0  0  0  0  0  0  0  0  0  0  0  0
    5.1331    5.7877   -4.9015 O   0  0  0  0  0  0  0  0  0  0  0  0
    1.6506    6.6388   -3.5348 O   0  0  0  0  0  0  0  0  0  0  0  0
    3.9620    7.5417   -7.6919 O   0  0  0  0  0  0  0  0  0  0  0  0
    7.2901    5.3450   -6.3694 O   0  0  0  0  0  0  0  0  0  0  0  0
    6.1854    1.9089   -6.0271 N   0  0  0  0  0  0  0  0  0  0  0  0
  1  2  1  0
  1 23  1  0
  1 26  1  6
  2  3  1  0
  2 33  1  6
  3  4  1  0
  3 24  1  6
  5  4  1  0
  4 25  1  6
  5  6  1  1
 23  5  1  0
  6 19  1  0
  8  7  1  0
  7 12  1  0
  7 21  1  1
  8  9  1  0
  8 28  1  6
  9 10  1  0
  9 27  1  6
 10 11  1  0
 10 26  1  6
 12 11  1  0
 11 20  1  1
 13 14  1  0
 13 28  1  6
 13 29  1  0
 14 15  1  0
 14 30  1  1
 15 16  1  0
 15 22  1  1
 16 17  1  0
 16 31  1  6
 17 18  1  1
 17 29  1  0
 18 32  1  0
M  CHG  5  19   1  20   1  21   1  22   1  33   1
M  END
$$$$
6np5_ligand
     RDKit          3D

 33 35  0  0  0  0  0  0  0  0999 V2000
    7.1432    1.3712   -3.4957 C   0  0  2  0  0  0  0  0  0  0  0  0
    7.6594    1.6590   -4.6791 C   0  0  1  0  0  0  0  0  0  0  0  0
    8.1395    0.6029   -5.3700 C   0  0  2  0  0  0  0  0  0  0  0  0
    9.1003   -0.2309   -4.3919 C   0  0  1  0  0  0  0  0  0  0  0  0
    8.0543   -0.6204   -3.4108 C   0  0  1  0  0  0  0  0  0  0  0  0
    8.8540   -1.6191   -2.4422 C   0  0  0  0  0  0  0  0  0  0  0  0
    2.9448    3.7165   -1.6542 C   0  0  1  0  0  0  0  0  0  0  0  0
    4.0534    4.3692   -2.4883 C   0  0  1  0  0  0  0  0  0  0  0  0
    4.5783    3.2066   -3.2279 C   0  0  2  0  0  0  0  0  0  0  0  0
    5.2753    2.2999   -2.4161 C   0  0  1  0  0  0  0  0  0  0  0  0
    4.1901    1.6265   -1.6407 C   0  0  2  0  0  0  0  0  0  0  0  0
    3.5838    2.7036   -0.9253 C   0  0  0  0  0  0  0  0  0  0  0  0
    4.0910    6.1429   -3.6812 C   0  0  1  0  0  0  0  0  0  0  0  0
    3.1592    7.1753   -3.8953 C   0  0  1  0  0  0  0  0  0  0  0  0
    2.9091    7.3128   -5.4277 C   0  0  2  0  0  0  0  0  0  0  0  0
    4.2959    7.5939   -6.0600 C   0  0  1  0  0  0  0  0  0  0  0  0
    4.9211    6.2717   -5.7881 C   0  0  1  0  0  0  0  0  0  0  0  0
    6.3975    6.2636   -6.6203 C   0  0  0  0  0  0  0  0  0  0  0  0
    8.5043   -2.1042   -1.3661 N   0  0  0  0  0  0  0  0  0  0  0  0
    5.0652    0.7847   -0.6224 N   0  0  0  0  0  0  0  0  0  0  0  0
    2.2161    4.9140   -1.0189 N   0  0  0  0  0  0  0  0  0  0  0  0
    1.9127    8.6513   -5.4754 N   0  0  0  0  0  0  0  0  0  0  0  0
    7.6551    0.2155   -2.7651 O   0  0  0  0  0  0  0  0  0  0  0  0
    8.8011    1.0657   -6.7119 O   0  0  0  0  0  0  0  0  0  0  0  0
    9.6346   -1.2341   -4.9288 O   0  0  0  0  0  0  0  0  0  0  0  0
    5.7583    1.3678   -3.3471 O   0  0  0  0  0  0  0  0  0  0  0  0
    5.8651    4.0236   -4.0871 O   0  0  0  0  0  0  0  0  0  0  0  0
    3.4988    5.0570   -3.2150 O   0  0  0  0  0  0  0  0  0  0  0  0
    5.1384    5.9593   -4.7048 O   0  0  0  0  0  0  0  0  0  0  0  0
    1.7381    6.8964   -3.1751 O   0  0  0  0  0  0  0  0  0  0  0  0
    3.9736    7.8557   -7.3701 O   0  0  0  0  0  0  0  0  0  0  0  0
    7.2330    5.6309   -6.2455 O   0  0  0  0  0  0  0  0  0  0  0  0
    6.4868    2.3373   -5.6762 N   0  0  0  0  0  0  0  0  0  0  0  0
  1  2  1  0
  1 23  1  0
  1 26  1  6
  2  3  1  0
  2 33  1  6
  3  4  1  0
  3 24  1  6
  5  4  1  0
  4 25  1  6
  5  6  1  1
 23  5  1  0
  6 19  1  0
  8  7  1  0
  7 12  1  0
  7 21  1  1
  8  9  1  0
  8 28  1  6
  9 10  1  0
  9 27  1  6
 10 11  1  0
 10 26  1  6
 12 11  1  0
 11 20  1  1
 13 14  1  0
 13 28  1  6
 13 29  1  0
 14 15  1  0
 14 30  1  1
 15 16  1  0
 15 22  1  1
 16 17  1  0
 16 31  1  6
 17 18  1  6
 17 29  1  0
 18 32  1  0
M  CHG  5  19   1  20   1  21   1  22   1  33   1
M  END
$$$$
6np5_ligand
     RDKit          3D

 33 35  0  0  0  0  0  0  0  0999 V2000
    6.9750    1.4424   -3.5398 C   0  0  2  0  0  0  0  0  0  0  0  0
    7.3960    1.6769   -4.7405 C   0  0  1  0  0  0  0  0  0  0  0  0
    7.9110    0.5316   -5.3872 C   0  0  2  0  0  0  0  0  0  0  0  0
    8.9653   -0.1494   -4.4456 C   0  0  1  0  0  0  0  0  0  0  0  0
    8.0746   -0.4850   -3.4589 C   0  0  1  0  0  0  0  0  0  0  0  0
    9.0601   -1.3982   -2.4986 C   0  0  0  0  0  0  0  0  0  0  0  0
    2.8901    3.7434   -1.6033 C   0  0  1  0  0  0  0  0  0  0  0  0
    3.9089    4.4037   -2.5361 C   0  0  1  0  0  0  0  0  0  0  0  0
    4.3695    3.2279   -3.2848 C   0  0  2  0  0  0  0  0  0  0  0  0
    5.1220    2.3346   -2.4450 C   0  0  1  0  0  0  0  0  0  0  0  0
    4.1156    1.6466   -1.6137 C   0  0  2  0  0  0  0  0  0  0  0  0
    3.5904    2.7536   -0.8806 C   0  0  0  0  0  0  0  0  0  0  0  0
    3.8835    6.1367   -3.7924 C   0  0  1  0  0  0  0  0  0  0  0  0
    2.9113    7.1196   -4.1515 C   0  0  1  0  0  0  0  0  0  0  0  0
    2.6768    7.1408   -5.6840 C   0  0  2  0  0  0  0  0  0  0  0  0
    3.9968    7.4495   -6.3249 C   0  0  1  0  0  0  0  0  0  0  0  0
    4.7403    6.2191   -5.9775 C   0  0  1  0  0  0  0  0  0  0  0  0
    6.2061    6.2450   -6.7865 C   0  0  0  0  0  0  0  0  0  0  0  0
    8.7689   -1.8718   -1.3154 N   0  0  0  0  0  0  0  0  0  0  0  0
    5.0392    0.7745   -0.7082 N   0  0  0  0  0  0  0  0  0  0  0  0
    2.2857    4.9358   -0.8624 N   0  0  0  0  0  0  0  0  0  0  0  0
    1.6086    8.4215   -5.8952 N   0  0  0  0  0  0  0  0  0  0  0  0
    7.5632    0.3319   -2.8045 O   0  0  0  0  0  0  0  0  0  0  0  0
    8.4390    1.0487   -6.7890 O   0  0  0  0  0  0  0  0  0  0  0  0
    9.4603   -1.1974   -4.9683 O   0  0  0  0  0  0  0  0  0  0  0  0
    5.5791    1.4384   -3.4084 O   0  0  0  0  0  0  0  0  0  0  0  0
    5.5484    4.0308   -4.3195 O   0  0  0  0  0  0  0  0  0  0  0  0
    3.2734    5.0626   -3.2449 O   0  0  0  0  0  0  0  0  0  0  0  0
    4.9561    6.0031   -4.7690 O   0  0  0  0  0  0  0  0  0  0  0  0
    1.5268    6.8247   -3.4166 O   0  0  0  0  0  0  0  0  0  0  0  0
    3.7439    7.4411   -7.7659 O   0  0  0  0  0  0  0  0  0  0  0  0
    7.0408    5.3941   -6.3579 O   0  0  0  0  0  0  0  0  0  0  0  0
    6.1555    2.3412   -5.6610 N   0  0  0  0  0  0  0  0  0  0  0  0
  1  2  1  0
  1 23  1  0
  1 26  1  6
  2  3  1  0
  2 33  1  6
  3  4  1  0
  3 24  1  6
  5  4  1  0
  4 25  1  6
  5  6  1  1
 23  5  1  0
  6 19  1  0
  8  7  1  0
  7 12  1  0
  7 21  1  1
  8  9  1  0
  8 28  1  6
  9 10  1  0
  9 27  1  6
 10 11  1  0
 10 26  1  6
 12 11  1  0
 11 20  1  1
 13 14  1  0
 13 28  1  6
 13 29  1  0
 14 15  1  0
 14 30  1  1
 15 16  1  0
 15 22  1  1
 16 17  1  0
 16 31  1  6
 17 18  1  6
 17 29  1  0
 18 32  1  0
M  CHG  5  19   1  20   1  21   1  22   1  33   1
M  END
$$$$
6np5_ligand
     RDKit          3D

 33 35  0  0  0  0  0  0  0  0999 V2000
    7.0860    1.3922   -3.5119 C   0  0  2  0  0  0  0  0  0  0  0  0
    7.5034    1.5632   -4.7421 C   0  0  1  0  0  0  0  0  0  0  0  0
    7.9967    0.3388   -5.3693 C   0  0  2  0  0  0  0  0  0  0  0  0
    9.1027   -0.2997   -4.3858 C   0  0  1  0  0  0  0  0  0  0  0  0
    8.2208   -0.6063   -3.3441 C   0  0  1  0  0  0  0  0  0  0  0  0
    9.2017   -1.4231   -2.3160 C   0  0  0  0  0  0  0  0  0  0  0  0
    2.9850    3.6331   -1.4771 C   0  0  1  0  0  0  0  0  0  0  0  0
    3.9857    4.3178   -2.3798 C   0  0  1  0  0  0  0  0  0  0  0  0
    4.4978    3.2172   -3.1726 C   0  0  2  0  0  0  0  0  0  0  0  0
    5.2153    2.2372   -2.3841 C   0  0  1  0  0  0  0  0  0  0  0  0
    4.2128    1.5337   -1.5833 C   0  0  2  0  0  0  0  0  0  0  0  0
    3.6822    2.6331   -0.7755 C   0  0  0  0  0  0  0  0  0  0  0  0
    3.9238    6.0575   -3.7111 C   0  0  1  0  0  0  0  0  0  0  0  0
    2.9475    7.0419   -4.0197 C   0  0  1  0  0  0  0  0  0  0  0  0
    2.5597    6.9669   -5.5340 C   0  0  2  0  0  0  0  0  0  0  0  0
    3.8076    7.1812   -6.3635 C   0  0  1  0  0  0  0  0  0  0  0  0
    4.5756    6.0029   -5.9337 C   0  0  1  0  0  0  0  0  0  0  0  0
    5.9899    5.9775   -6.8629 C   0  0  0  0  0  0  0  0  0  0  0  0
    8.9386   -1.8655   -1.0501 N   0  0  0  0  0  0  0  0  0  0  0  0
    5.0862    0.6060   -0.7380 N   0  0  0  0  0  0  0  0  0  0  0  0
    2.3676    4.6842   -0.5813 N   0  0  0  0  0  0  0  0  0  0  0  0
    1.4808    8.2481   -5.7443 N   0  0  0  0  0  0  0  0  0  0  0  0
    7.7383    0.3131   -2.7319 O   0  0  0  0  0  0  0  0  0  0  0  0
    8.5372    0.7827   -6.7953 O   0  0  0  0  0  0  0  0  0  0  0  0
    9.6403   -1.3397   -4.9092 O   0  0  0  0  0  0  0  0  0  0  0  0
    5.6599    1.3939   -3.3886 O   0  0  0  0  0  0  0  0  0  0  0  0
    5.6241    4.0638   -4.1178 O   0  0  0  0  0  0  0  0  0  0  0  0
    3.3318    4.9515   -3.1400 O   0  0  0  0  0  0  0  0  0  0  0  0
    4.9292    5.8637   -4.7536 O   0  0  0  0  0  0  0  0  0  0  0  0
    1.6341    6.8450   -3.1277 O   0  0  0  0  0  0  0  0  0  0  0  0
    3.4649    7.1357   -7.7438 O   0  0  0  0  0  0  0  0  0  0  0  0
    6.9407    5.5647   -6.3514 O   0  0  0  0  0  0  0  0  0  0  0  0
    6.2503    2.1963   -5.6248 N   0  0  0  0  0  0  0  0  0  0  0  0
  1  2  1  0
  1 23  1  0
  1 26  1  6
  2  3  1  0
  2 33  1  6
  3  4  1  0
  3 24  1  6
  5  4  1  0
  4 25  1  6
  5  6  1  1
 23  5  1  0
  6 19  1  0
  8  7  1  0
  7 12  1  0
  7 21  1  1
  8  9  1  0
  8 28  1  6
  9 10  1  0
  9 27  1  6
 10 11  1  0
 10 26  1  6
 12 11  1  0
 11 20  1  1
 13 14  1  0
 13 28  1  6
 13 29  1  0
 14 15  1  0
 14 30  1  1
 15 16  1  0
 15 22  1  6
 16 17  1  0
 16 31  1  6
 17 18  1  6
 17 29  1  0
 18 32  1  0
M  CHG  5  19   1  20   1  21   1  22   1  33   1
M  END
$$$$
6np5_ligand
     RDKit          3D

 33 35  0  0  0  0  0  0  0  0999 V2000
    7.1286    1.2238   -3.5210 C   0  0  2  0  0  0  0  0  0  0  0  0
    7.6133    1.4222   -4.7579 C   0  0  1  0  0  0  0  0  0  0  0  0
    8.1404    0.2169   -5.3617 C   0  0  2  0  0  0  0  0  0  0  0  0
    9.1484   -0.4933   -4.3916 C   0  0  1  0  0  0  0  0  0  0  0  0
    8.1981   -0.7751   -3.3610 C   0  0  1  0  0  0  0  0  0  0  0  0
    9.1173   -1.6278   -2.3214 C   0  0  0  0  0  0  0  0  0  0  0  0
    2.9303    3.4336   -1.6290 C   0  0  1  0  0  0  0  0  0  0  0  0
    3.9792    4.1515   -2.4624 C   0  0  1  0  0  0  0  0  0  0  0  0
    4.6360    3.0688   -3.2141 C   0  0  2  0  0  0  0  0  0  0  0  0
    5.2928    2.0964   -2.4381 C   0  0  1  0  0  0  0  0  0  0  0  0
    4.2441    1.3721   -1.6426 C   0  0  2  0  0  0  0  0  0  0  0  0
    3.6161    2.4420   -0.8476 C   0  0  0  0  0  0  0  0  0  0  0  0
    3.8723    5.8779   -3.8655 C   0  0  1  0  0  0  0  0  0  0  0  0
    2.8296    6.7944   -4.2722 C   0  0  1  0  0  0  0  0  0  0  0  0
    2.5291    6.6654   -5.7575 C   0  0  2  0  0  0  0  0  0  0  0  0
    3.8268    6.9167   -6.5635 C   0  0  1  0  0  0  0  0  0  0  0  0
    4.6550    5.7737   -6.0874 C   0  0  1  0  0  0  0  0  0  0  0  0
    6.0789    5.8476   -6.9533 C   0  0  0  0  0  0  0  0  0  0  0  0
    8.7314   -1.9255   -1.1294 N   0  0  0  0  0  0  0  0  0  0  0  0
    5.1427    0.5270   -0.6619 N   0  0  0  0  0  0  0  0  0  0  0  0
    2.2089    4.5165   -0.7459 N   0  0  0  0  0  0  0  0  0  0  0  0
    1.4462    7.8152   -6.0844 N   0  0  0  0  0  0  0  0  0  0  0  0
    7.6618    0.1181   -2.7943 O   0  0  0  0  0  0  0  0  0  0  0  0
    8.7723    0.6374   -6.7498 O   0  0  0  0  0  0  0  0  0  0  0  0
    9.6041   -1.5911   -4.9021 O   0  0  0  0  0  0  0  0  0  0  0  0
    5.7225    1.2865   -3.4078 O   0  0  0  0  0  0  0  0  0  0  0  0
    5.8703    3.9569   -3.9455 O   0  0  0  0  0  0  0  0  0  0  0  0
    3.3584    4.7405   -3.2944 O   0  0  0  0  0  0  0  0  0  0  0  0
    4.9371    5.7395   -4.8223 O   0  0  0  0  0  0  0  0  0  0  0  0
    1.4693    6.5135   -3.5148 O   0  0  0  0  0  0  0  0  0  0  0  0
    3.5142    6.7838   -7.9600 O   0  0  0  0  0  0  0  0  0  0  0  0
    6.9879    5.3261   -6.4276 O   0  0  0  0  0  0  0  0  0  0  0  0
    6.4689    2.0203   -5.7350 N   0  0  0  0  0  0  0  0  0  0  0  0
  1  2  1  0
  1 23  1  0
  1 26  1  6
  2  3  1  0
  2 33  1  6
  3  4  1  0
  3 24  1  6
  5  4  1  0
  4 25  1  6
  5  6  1  1
 23  5  1  0
  6 19  1  0
  8  7  1  0
  7 12  1  0
  7 21  1  1
  8  9  1  0
  8 28  1  6
  9 10  1  0
  9 27  1  6
 10 11  1  0
 10 26  1  6
 12 11  1  0
 11 20  1  1
 13 14  1  0
 13 28  1  6
 13 29  1  0
 14 15  1  0
 14 30  1  1
 15 16  1  0
 15 22  1  6
 16 17  1  0
 16 31  1  6
 17 18  1  6
 17 29  1  0
 18 32  1  0
M  CHG  5  19   1  20   1  21   1  22   1  33   1
M  END
$$$$
6np5_ligand
     RDKit          3D

 33 35  0  0  0  0  0  0  0  0999 V2000
    7.1813    1.3139   -3.5074 C   0  0  2  0  0  0  0  0  0  0  0  0
    7.6915    1.5216   -4.7579 C   0  0  1  0  0  0  0  0  0  0  0  0
    8.2258    0.3426   -5.4092 C   0  0  2  0  0  0  0  0  0  0  0  0
    9.1695   -0.4764   -4.4097 C   0  0  1  0  0  0  0  0  0  0  0  0
    8.1079   -0.7775   -3.4215 C   0  0  1  0  0  0  0  0  0  0  0  0
    8.8916   -1.6946   -2.4212 C   0  0  0  0  0  0  0  0  0  0  0  0
    2.8171    3.4501   -1.7420 C   0  0  1  0  0  0  0  0  0  0  0  0
    3.8986    4.1838   -2.5395 C   0  0  1  0  0  0  0  0  0  0  0  0
    4.6274    3.0986   -3.2439 C   0  0  2  0  0  0  0  0  0  0  0  0
    5.2886    2.2038   -2.4233 C   0  0  1  0  0  0  0  0  0  0  0  0
    4.2711    1.4756   -1.5799 C   0  0  2  0  0  0  0  0  0  0  0  0
    3.5544    2.5402   -0.8440 C   0  0  0  0  0  0  0  0  0  0  0  0
    3.8593    5.9227   -3.9334 C   0  0  1  0  0  0  0  0  0  0  0  0
    2.8233    6.8530   -4.3115 C   0  0  1  0  0  0  0  0  0  0  0  0
    2.5436    6.7677   -5.8272 C   0  0  2  0  0  0  0  0  0  0  0  0
    3.7897    7.0194   -6.6059 C   0  0  1  0  0  0  0  0  0  0  0  0
    4.6334    5.8470   -6.1588 C   0  0  1  0  0  0  0  0  0  0  0  0
    6.0586    5.9555   -7.0554 C   0  0  0  0  0  0  0  0  0  0  0  0
    8.3048   -2.1222   -1.3150 N   0  0  0  0  0  0  0  0  0  0  0  0
    5.1530    0.7568   -0.5044 N   0  0  0  0  0  0  0  0  0  0  0  0
    2.0263    4.5277   -0.9520 N   0  0  0  0  0  0  0  0  0  0  0  0
    1.4723    7.9218   -6.1388 N   0  0  0  0  0  0  0  0  0  0  0  0
    7.6421    0.1809   -2.8093 O   0  0  0  0  0  0  0  0  0  0  0  0
    8.8941    0.6830   -6.7161 O   0  0  0  0  0  0  0  0  0  0  0  0
    9.7085   -1.5444   -4.9204 O   0  0  0  0  0  0  0  0  0  0  0  0
    5.7653    1.4217   -3.3971 O   0  0  0  0  0  0  0  0  0  0  0  0
    5.8569    4.0468   -3.9119 O   0  0  0  0  0  0  0  0  0  0  0  0
    3.2916    4.7423   -3.4132 O   0  0  0  0  0  0  0  0  0  0  0  0
    4.9224    5.8121   -4.8636 O   0  0  0  0  0  0  0  0  0  0  0  0
    1.4886    6.5336   -3.5613 O   0  0  0  0  0  0  0  0  0  0  0  0
    3.3926    6.8677   -8.0092 O   0  0  0  0  0  0  0  0  0  0  0  0
    7.0079    5.5795   -6.5478 O   0  0  0  0  0  0  0  0  0  0  0  0
    6.6334    2.0668   -5.7823 N   0  0  0  0  0  0  0  0  0  0  0  0
  1  2  1  0
  1 23  1  0
  1 26  1  6
  2  3  1  0
  2 33  1  6
  3  4  1  0
  3 24  1  6
  5  4  1  0
  4 25  1  6
  5  6  1  1
 23  5  1  0
  6 19  1  0
  8  7  1  0
  7 12  1  0
  7 21  1  1
  8  9  1  0
  8 28  1  6
  9 10  1  0
  9 27  1  6
 10 11  1  0
 10 26  1  6
 12 11  1  0
 11 20  1  1
 13 14  1  0
 13 28  1  6
 13 29  1  0
 14 15  1  0
 14 30  1  1
 15 16  1  0
 15 22  1  6
 16 17  1  0
 16 31  1  6
 17 18  1  6
 17 29  1  0
 18 32  1  0
M  CHG  5  19   1  20   1  21   1  22   1  33   1
M  END
$$$$
6np5_ligand
     RDKit          3D

 33 35  0  0  0  0  0  0  0  0999 V2000
    7.3326    1.2854   -3.4468 C   0  0  2  0  0  0  0  0  0  0  0  0
    7.9008    1.6304   -4.6478 C   0  0  1  0  0  0  0  0  0  0  0  0
    8.3590    0.4703   -5.4264 C   0  0  2  0  0  0  0  0  0  0  0  0
    9.2423   -0.5093   -4.5109 C   0  0  1  0  0  0  0  0  0  0  0  0
    8.1611   -0.8270   -3.5570 C   0  0  1  0  0  0  0  0  0  0  0  0
    8.9101   -1.8226   -2.6234 C   0  0  0  0  0  0  0  0  0  0  0  0
    2.9485    3.3198   -1.6615 C   0  0  1  0  0  0  0  0  0  0  0  0
    3.9586    4.0848   -2.5024 C   0  0  1  0  0  0  0  0  0  0  0  0
    4.7129    3.0374   -3.2105 C   0  0  2  0  0  0  0  0  0  0  0  0
    5.4215    2.1321   -2.4010 C   0  0  1  0  0  0  0  0  0  0  0  0
    4.4565    1.3699   -1.5701 C   0  0  2  0  0  0  0  0  0  0  0  0
    3.7062    2.4298   -0.7726 C   0  0  0  0  0  0  0  0  0  0  0  0
    3.8638    5.9133   -3.8781 C   0  0  1  0  0  0  0  0  0  0  0  0
    2.8608    6.8672   -4.3259 C   0  0  1  0  0  0  0  0  0  0  0  0
    2.6466    6.8178   -5.8416 C   0  0  2  0  0  0  0  0  0  0  0  0
    3.8858    7.0017   -6.5754 C   0  0  1  0  0  0  0  0  0  0  0  0
    4.7204    5.8231   -6.0709 C   0  0  1  0  0  0  0  0  0  0  0  0
    6.1817    5.8408   -6.8588 C   0  0  0  0  0  0  0  0  0  0  0  0
    8.2262   -2.2255   -1.5219 N   0  0  0  0  0  0  0  0  0  0  0  0
    5.2929    0.6058   -0.5202 N   0  0  0  0  0  0  0  0  0  0  0  0
    2.1325    4.3184   -0.8439 N   0  0  0  0  0  0  0  0  0  0  0  0
    1.6383    7.9902   -6.2200 N   0  0  0  0  0  0  0  0  0  0  0  0
    7.7352    0.0602   -2.8553 O   0  0  0  0  0  0  0  0  0  0  0  0
    9.0701    0.9032   -6.6626 O   0  0  0  0  0  0  0  0  0  0  0  0
    9.6875   -1.5408   -5.1676 O   0  0  0  0  0  0  0  0  0  0  0  0
    5.9267    1.3679   -3.3698 O   0  0  0  0  0  0  0  0  0  0  0  0
    5.8832    3.9797   -3.8533 O   0  0  0  0  0  0  0  0  0  0  0  0
    3.3054    4.6472   -3.3969 O   0  0  0  0  0  0  0  0  0  0  0  0
    4.9472    5.7968   -4.7785 O   0  0  0  0  0  0  0  0  0  0  0  0
    1.5061    6.6054   -3.6255 O   0  0  0  0  0  0  0  0  0  0  0  0
    3.5324    6.8226   -7.9858 O   0  0  0  0  0  0  0  0  0  0  0  0
    7.1335    5.6853   -6.2001 O   0  0  0  0  0  0  0  0  0  0  0  0
    6.9283    2.4020   -5.5959 N   0  0  0  0  0  0  0  0  0  0  0  0
  1  2  1  0
  1 23  1  0
  1 26  1  6
  2  3  1  0
  2 33  1  6
  3  4  1  0
  3 24  1  6
  5  4  1  0
  4 25  1  6
  5  6  1  1
 23  5  1  0
  6 19  1  0
  8  7  1  0
  7 12  1  0
  7 21  1  1
  8  9  1  0
  8 28  1  6
  9 10  1  0
  9 27  1  6
 10 11  1  0
 10 26  1  6
 12 11  1  0
 11 20  1  1
 13 14  1  0
 13 28  1  6
 13 29  1  0
 14 15  1  0
 14 30  1  1
 15 16  1  0
 15 22  1  6
 16 17  1  0
 16 31  1  6
 17 18  1  6
 17 29  1  0
 18 32  1  0
M  CHG  5  19   1  20   1  21   1  22   1  33   1
M  END
$$$$
6np5_ligand
     RDKit          3D

 33 35  0  0  0  0  0  0  0  0999 V2000
    7.1903    1.3393   -3.4441 C   0  0  2  0  0  0  0  0  0  0  0  0
    7.8109    1.6762   -4.6446 C   0  0  1  0  0  0  0  0  0  0  0  0
    8.2439    0.4838   -5.4228 C   0  0  2  0  0  0  0  0  0  0  0  0
    9.0824   -0.5244   -4.5167 C   0  0  1  0  0  0  0  0  0  0  0  0
    8.0089   -0.8171   -3.5499 C   0  0  1  0  0  0  0  0  0  0  0  0
    8.6965   -1.8100   -2.5995 C   0  0  0  0  0  0  0  0  0  0  0  0
    2.8203    3.3727   -1.6998 C   0  0  1  0  0  0  0  0  0  0  0  0
    3.8084    4.1402   -2.5373 C   0  0  1  0  0  0  0  0  0  0  0  0
    4.5879    3.1346   -3.2576 C   0  0  2  0  0  0  0  0  0  0  0  0
    5.2751    2.2461   -2.4444 C   0  0  1  0  0  0  0  0  0  0  0  0
    4.3181    1.4600   -1.6027 C   0  0  2  0  0  0  0  0  0  0  0  0
    3.5906    2.5003   -0.7946 C   0  0  0  0  0  0  0  0  0  0  0  0
    3.7457    5.9049   -3.9254 C   0  0  1  0  0  0  0  0  0  0  0  0
    2.7640    6.8952   -4.3382 C   0  0  1  0  0  0  0  0  0  0  0  0
    2.5048    6.8466   -5.8409 C   0  0  2  0  0  0  0  0  0  0  0  0
    3.7910    7.0038   -6.6390 C   0  0  1  0  0  0  0  0  0  0  0  0
    4.5797    5.7929   -6.1457 C   0  0  1  0  0  0  0  0  0  0  0  0
    6.0044    5.7754   -6.9428 C   0  0  0  0  0  0  0  0  0  0  0  0
    8.0408   -2.2682   -1.5507 N   0  0  0  0  0  0  0  0  0  0  0  0
    5.1460    0.6974   -0.5787 N   0  0  0  0  0  0  0  0  0  0  0  0
    1.9876    4.3326   -0.8966 N   0  0  0  0  0  0  0  0  0  0  0  0
    1.5429    8.0122   -6.2283 N   0  0  0  0  0  0  0  0  0  0  0  0
    7.5765    0.0958   -2.8254 O   0  0  0  0  0  0  0  0  0  0  0  0
    8.9521    0.8800   -6.6366 O   0  0  0  0  0  0  0  0  0  0  0  0
    9.5119   -1.5892   -5.1734 O   0  0  0  0  0  0  0  0  0  0  0  0
    5.7777    1.4836   -3.4156 O   0  0  0  0  0  0  0  0  0  0  0  0
    5.7146    4.0889   -3.8892 O   0  0  0  0  0  0  0  0  0  0  0  0
    3.1788    4.6607   -3.4377 O   0  0  0  0  0  0  0  0  0  0  0  0
    4.8376    5.7531   -4.8347 O   0  0  0  0  0  0  0  0  0  0  0  0
    1.4294    6.6567   -3.6281 O   0  0  0  0  0  0  0  0  0  0  0  0
    3.4507    6.8806   -8.0347 O   0  0  0  0  0  0  0  0  0  0  0  0
    6.9377    5.5393   -6.2552 O   0  0  0  0  0  0  0  0  0  0  0  0
    6.9093    2.4998   -5.6081 N   0  0  0  0  0  0  0  0  0  0  0  0
  1  2  1  0
  1 23  1  0
  1 26  1  6
  2  3  1  0
  2 33  1  6
  3  4  1  0
  3 24  1  6
  5  4  1  0
  4 25  1  6
  5  6  1  1
 23  5  1  0
  6 19  1  0
  8  7  1  0
  7 12  1  0
  7 21  1  1
  8  9  1  0
  8 28  1  6
  9 10  1  0
  9 27  1  1
 10 11  1  0
 10 26  1  6
 12 11  1  0
 11 20  1  1
 13 14  1  0
 13 28  1  6
 13 29  1  0
 14 15  1  0
 14 30  1  1
 15 16  1  0
 15 22  1  6
 16 17  1  0
 16 31  1  6
 17 18  1  6
 17 29  1  0
 18 32  1  0
M  CHG  5  19   1  20   1  21   1  22   1  33   1
M  END
$$$$
6np5_ligand
     RDKit          3D

 33 35  0  0  0  0  0  0  0  0999 V2000
    7.4242    1.2631   -3.2955 C   0  0  2  0  0  0  0  0  0  0  0  0
    8.0200    1.6248   -4.5141 C   0  0  1  0  0  0  0  0  0  0  0  0
    8.4901    0.4305   -5.2776 C   0  0  2  0  0  0  0  0  0  0  0  0
    9.3147   -0.5890   -4.3774 C   0  0  1  0  0  0  0  0  0  0  0  0
    8.2342   -0.9230   -3.4230 C   0  0  1  0  0  0  0  0  0  0  0  0
    8.8853   -1.9303   -2.4566 C   0  0  0  0  0  0  0  0  0  0  0  0
    3.0360    3.3574   -1.5418 C   0  0  1  0  0  0  0  0  0  0  0  0
    4.0046    4.0960   -2.4159 C   0  0  1  0  0  0  0  0  0  0  0  0
    4.7895    3.0824   -3.1619 C   0  0  2  0  0  0  0  0  0  0  0  0
    5.5031    2.1934   -2.3140 C   0  0  1  0  0  0  0  0  0  0  0  0
    4.5536    1.4296   -1.4747 C   0  0  2  0  0  0  0  0  0  0  0  0
    3.8372    2.5097   -0.6480 C   0  0  0  0  0  0  0  0  0  0  0  0
    3.9412    5.8685   -3.7992 C   0  0  1  0  0  0  0  0  0  0  0  0
    2.9271    6.8146   -4.2517 C   0  0  1  0  0  0  0  0  0  0  0  0
    2.6428    6.6464   -5.7363 C   0  0  2  0  0  0  0  0  0  0  0  0
    3.9247    6.7840   -6.5856 C   0  0  1  0  0  0  0  0  0  0  0  0
    4.7809    5.6497   -6.0308 C   0  0  1  0  0  0  0  0  0  0  0  0
    6.2176    5.6575   -6.8123 C   0  0  0  0  0  0  0  0  0  0  0  0
    7.9482   -2.3012   -1.3744 N   0  0  0  0  0  0  0  0  0  0  0  0
    5.3671    0.6208   -0.5016 N   0  0  0  0  0  0  0  0  0  0  0  0
    2.2060    4.3161   -0.7704 N   0  0  0  0  0  0  0  0  0  0  0  0
    1.6674    7.7407   -6.1982 N   0  0  0  0  0  0  0  0  0  0  0  0
    7.7419   -0.0114   -2.7026 O   0  0  0  0  0  0  0  0  0  0  0  0
    9.1955    0.8657   -6.4938 O   0  0  0  0  0  0  0  0  0  0  0  0
    9.7950   -1.6353   -5.0524 O   0  0  0  0  0  0  0  0  0  0  0  0
    6.0324    1.4235   -3.2867 O   0  0  0  0  0  0  0  0  0  0  0  0
    5.8767    4.0103   -3.8396 O   0  0  0  0  0  0  0  0  0  0  0  0
    3.3747    4.6294   -3.3192 O   0  0  0  0  0  0  0  0  0  0  0  0
    5.0350    5.7044   -4.7063 O   0  0  0  0  0  0  0  0  0  0  0  0
    1.6196    6.6004   -3.4961 O   0  0  0  0  0  0  0  0  0  0  0  0
    3.5725    6.5426   -7.9691 O   0  0  0  0  0  0  0  0  0  0  0  0
    7.1368    5.3367   -6.0637 O   0  0  0  0  0  0  0  0  0  0  0  0
    7.0808    2.4073   -5.4641 N   0  0  0  0  0  0  0  0  0  0  0  0
  1  2  1  0
  1 23  1  0
  1 26  1  6
  2  3  1  0
  2 33  1  6
  3  4  1  0
  3 24  1  6
  5  4  1  0
  4 25  1  6
  5  6  1  1
 23  5  1  0
  6 19  1  0
  8  7  1  0
  7 12  1  0
  7 21  1  1
  8  9  1  0
  8 28  1  6
  9 10  1  0
  9 27  1  6
 10 11  1  0
 10 26  1  6
 12 11  1  0
 11 20  1  1
 13 14  1  0
 13 28  1  6
 13 29  1  0
 14 15  1  0
 14 30  1  1
 15 16  1  0
 15 22  1  6
 16 17  1  0
 16 31  1  6
 17 18  1  6
 17 29  1  0
 18 32  1  0
M  CHG  5  19   1  20   1  21   1  22   1  33   1
M  END
$$$$
6np5_ligand
     RDKit          3D

 33 35  0  0  0  0  0  0  0  0999 V2000
    7.2961    1.4286   -3.2959 C   0  0  2  0  0  0  0  0  0  0  0  0
    7.9332    1.7811   -4.5189 C   0  0  1  0  0  0  0  0  0  0  0  0
    8.4557    0.5615   -5.2327 C   0  0  2  0  0  0  0  0  0  0  0  0
    9.2042   -0.4533   -4.3103 C   0  0  1  0  0  0  0  0  0  0  0  0
    8.0819   -0.7737   -3.3824 C   0  0  1  0  0  0  0  0  0  0  0  0
    8.6783   -1.7913   -2.3833 C   0  0  0  0  0  0  0  0  0  0  0  0
    2.9323    3.5401   -1.4742 C   0  0  1  0  0  0  0  0  0  0  0  0
    3.9178    4.2716   -2.3652 C   0  0  1  0  0  0  0  0  0  0  0  0
    4.6595    3.2635   -3.1290 C   0  0  2  0  0  0  0  0  0  0  0  0
    5.4018    2.3485   -2.3052 C   0  0  1  0  0  0  0  0  0  0  0  0
    4.4572    1.6213   -1.4284 C   0  0  2  0  0  0  0  0  0  0  0  0
    3.7312    2.6580   -0.5935 C   0  0  0  0  0  0  0  0  0  0  0  0
    3.9496    6.0204   -3.7881 C   0  0  1  0  0  0  0  0  0  0  0  0
    2.8989    6.9459   -4.2689 C   0  0  1  0  0  0  0  0  0  0  0  0
    2.6365    6.7662   -5.7332 C   0  0  2  0  0  0  0  0  0  0  0  0
    3.9048    6.9102   -6.6193 C   0  0  1  0  0  0  0  0  0  0  0  0
    4.7952    5.7947   -6.0547 C   0  0  1  0  0  0  0  0  0  0  0  0
    6.2173    5.8243   -6.8617 C   0  0  0  0  0  0  0  0  0  0  0  0
    7.8433   -2.1929   -1.3903 N   0  0  0  0  0  0  0  0  0  0  0  0
    5.2581    0.8217   -0.4272 N   0  0  0  0  0  0  0  0  0  0  0  0
    2.1375    4.5023   -0.6454 N   0  0  0  0  0  0  0  0  0  0  0  0
    1.6333    7.8167   -6.1973 N   0  0  0  0  0  0  0  0  0  0  0  0
    7.5779    0.1731   -2.6910 O   0  0  0  0  0  0  0  0  0  0  0  0
    9.2161    0.9413   -6.4267 O   0  0  0  0  0  0  0  0  0  0  0  0
    9.6690   -1.5372   -4.9562 O   0  0  0  0  0  0  0  0  0  0  0  0
    5.8922    1.5821   -3.2803 O   0  0  0  0  0  0  0  0  0  0  0  0
    5.7381    4.1965   -3.8285 O   0  0  0  0  0  0  0  0  0  0  0  0
    3.3211    4.8214   -3.2528 O   0  0  0  0  0  0  0  0  0  0  0  0
    5.0331    5.8568   -4.6846 O   0  0  0  0  0  0  0  0  0  0  0  0
    1.6070    6.7232   -3.5292 O   0  0  0  0  0  0  0  0  0  0  0  0
    3.5910    6.6475   -7.9861 O   0  0  0  0  0  0  0  0  0  0  0  0
    7.1341    5.6387   -6.1917 O   0  0  0  0  0  0  0  0  0  0  0  0
    7.0218    2.5268   -5.4819 N   0  0  0  0  0  0  0  0  0  0  0  0
  1  2  1  0
  1 23  1  0
  1 26  1  6
  2  3  1  0
  2 33  1  6
  3  4  1  0
  3 24  1  6
  5  4  1  0
  4 25  1  6
  5  6  1  1
 23  5  1  0
  6 19  1  0
  8  7  1  0
  7 12  1  0
  7 21  1  1
  8  9  1  0
  8 28  1  6
  9 10  1  0
  9 27  1  6
 10 11  1  0
 10 26  1  6
 12 11  1  0
 11 20  1  1
 13 14  1  0
 13 28  1  6
 13 29  1  0
 14 15  1  0
 14 30  1  1
 15 16  1  0
 15 22  1  6
 16 17  1  0
 16 31  1  6
 17 18  1  6
 17 29  1  0
 18 32  1  0
M  CHG  5  19   1  20   1  21   1  22   1  33   1
M  END
$$$$
6np5_ligand
     RDKit          3D

 33 35  0  0  0  0  0  0  0  0999 V2000
    7.3415    1.4180   -3.2467 C   0  0  2  0  0  0  0  0  0  0  0  0
    7.9640    1.7491   -4.4668 C   0  0  1  0  0  0  0  0  0  0  0  0
    8.4199    0.5012   -5.1906 C   0  0  2  0  0  0  0  0  0  0  0  0
    9.2092   -0.4901   -4.2520 C   0  0  1  0  0  0  0  0  0  0  0  0
    8.1381   -0.7939   -3.2809 C   0  0  1  0  0  0  0  0  0  0  0  0
    8.7799   -1.7747   -2.2608 C   0  0  0  0  0  0  0  0  0  0  0  0
    3.0371    3.4978   -1.3967 C   0  0  1  0  0  0  0  0  0  0  0  0
    4.0113    4.2159   -2.3029 C   0  0  1  0  0  0  0  0  0  0  0  0
    4.7522    3.2391   -3.0965 C   0  0  2  0  0  0  0  0  0  0  0  0
    5.4651    2.3182   -2.2693 C   0  0  1  0  0  0  0  0  0  0  0  0
    4.5343    1.5891   -1.3750 C   0  0  2  0  0  0  0  0  0  0  0  0
    3.8612    2.6311   -0.5166 C   0  0  0  0  0  0  0  0  0  0  0  0
    4.0135    5.9447   -3.7103 C   0  0  1  0  0  0  0  0  0  0  0  0
    2.9017    6.8004   -4.2238 C   0  0  1  0  0  0  0  0  0  0  0  0
    2.7285    6.6232   -5.7033 C   0  0  2  0  0  0  0  0  0  0  0  0
    4.0204    6.8229   -6.5275 C   0  0  1  0  0  0  0  0  0  0  0  0
    4.9496    5.7334   -5.9559 C   0  0  1  0  0  0  0  0  0  0  0  0
    6.4002    5.8238   -6.7131 C   0  0  0  0  0  0  0  0  0  0  0  0
    7.9239   -2.0856   -1.1689 N   0  0  0  0  0  0  0  0  0  0  0  0
    5.3385    0.7734   -0.4106 N   0  0  0  0  0  0  0  0  0  0  0  0
    2.2754    4.4793   -0.5615 N   0  0  0  0  0  0  0  0  0  0  0  0
    1.7050    7.6281   -6.2059 N   0  0  0  0  0  0  0  0  0  0  0  0
    7.6839    0.1903   -2.5946 O   0  0  0  0  0  0  0  0  0  0  0  0
    9.1524    0.8762   -6.4023 O   0  0  0  0  0  0  0  0  0  0  0  0
    9.6561   -1.5979   -4.8691 O   0  0  0  0  0  0  0  0  0  0  0  0
    5.9305    1.5786   -3.2317 O   0  0  0  0  0  0  0  0  0  0  0  0
    5.7871    4.1405   -3.8071 O   0  0  0  0  0  0  0  0  0  0  0  0
    3.4136    4.7573   -3.1656 O   0  0  0  0  0  0  0  0  0  0  0  0
    5.1311    5.7999   -4.5590 O   0  0  0  0  0  0  0  0  0  0  0  0
    1.6132    6.4801   -3.5505 O   0  0  0  0  0  0  0  0  0  0  0  0
    3.7507    6.5975   -7.8992 O   0  0  0  0  0  0  0  0  0  0  0  0
    7.3169    5.6860   -6.0846 O   0  0  0  0  0  0  0  0  0  0  0  0
    7.0344    2.5100   -5.3931 N   0  0  0  0  0  0  0  0  0  0  0  0
  1  2  1  0
  1 23  1  0
  1 26  1  6
  2  3  1  0
  2 33  1  6
  3  4  1  0
  3 24  1  6
  5  4  1  0
  4 25  1  6
  5  6  1  1
 23  5  1  0
  6 19  1  0
  8  7  1  0
  7 12  1  0
  7 21  1  1
  8  9  1  0
  8 28  1  6
  9 10  1  0
  9 27  1  6
 10 11  1  0
 10 26  1  6
 12 11  1  0
 11 20  1  1
 13 14  1  0
 13 28  1  6
 13 29  1  0
 14 15  1  0
 14 30  1  1
 15 16  1  0
 15 22  1  6
 16 17  1  0
 16 31  1  6
 17 18  1  6
 17 29  1  0
 18 32  1  0
M  CHG  5  19   1  20   1  21   1  22   1  33   1
M  END
$$$$
6np5_ligand
     RDKit          3D

 33 35  0  0  0  0  0  0  0  0999 V2000
    7.3841    1.4845   -3.3460 C   0  0  2  0  0  0  0  0  0  0  0  0
    8.0263    1.7847   -4.5763 C   0  0  1  0  0  0  0  0  0  0  0  0
    8.4794    0.4774   -5.2634 C   0  0  2  0  0  0  0  0  0  0  0  0
    9.2679   -0.4715   -4.2984 C   0  0  1  0  0  0  0  0  0  0  0  0
    8.2342   -0.7435   -3.2840 C   0  0  1  0  0  0  0  0  0  0  0  0
    8.9063   -1.6834   -2.2234 C   0  0  0  0  0  0  0  0  0  0  0  0
    3.0677    3.5072   -1.4344 C   0  0  1  0  0  0  0  0  0  0  0  0
    4.0248    4.2383   -2.3496 C   0  0  1  0  0  0  0  0  0  0  0  0
    4.7878    3.3088   -3.1721 C   0  0  2  0  0  0  0  0  0  0  0  0
    5.4851    2.3200   -2.3838 C   0  0  1  0  0  0  0  0  0  0  0  0
    4.5325    1.5629   -1.5249 C   0  0  2  0  0  0  0  0  0  0  0  0
    3.8835    2.5860   -0.6042 C   0  0  0  0  0  0  0  0  0  0  0  0
    3.9907    5.9479   -3.7578 C   0  0  1  0  0  0  0  0  0  0  0  0
    2.8689    6.7971   -4.2943 C   0  0  1  0  0  0  0  0  0  0  0  0
    2.7137    6.6163   -5.7776 C   0  0  2  0  0  0  0  0  0  0  0  0
    3.9880    6.7578   -6.5910 C   0  0  1  0  0  0  0  0  0  0  0  0
    4.9297    5.6792   -5.9945 C   0  0  1  0  0  0  0  0  0  0  0  0
    6.3907    5.7264   -6.7534 C   0  0  0  0  0  0  0  0  0  0  0  0
    8.0952   -2.0491   -1.1800 N   0  0  0  0  0  0  0  0  0  0  0  0
    5.3163    0.6484   -0.6515 N   0  0  0  0  0  0  0  0  0  0  0  0
    2.3837    4.4971   -0.4993 N   0  0  0  0  0  0  0  0  0  0  0  0
    1.7004    7.6515   -6.2932 N   0  0  0  0  0  0  0  0  0  0  0  0
    7.7589    0.2749   -2.6341 O   0  0  0  0  0  0  0  0  0  0  0  0
    9.1945    0.8270   -6.5102 O   0  0  0  0  0  0  0  0  0  0  0  0
    9.6718   -1.6017   -4.9135 O   0  0  0  0  0  0  0  0  0  0  0  0
    5.9640    1.6008   -3.3561 O   0  0  0  0  0  0  0  0  0  0  0  0
    5.8030    4.2127   -3.8421 O   0  0  0  0  0  0  0  0  0  0  0  0
    3.4123    4.7653   -3.2073 O   0  0  0  0  0  0  0  0  0  0  0  0
    5.0990    5.7702   -4.6035 O   0  0  0  0  0  0  0  0  0  0  0  0
    1.5676    6.4624   -3.6454 O   0  0  0  0  0  0  0  0  0  0  0  0
    3.7100    6.4931   -7.9615 O   0  0  0  0  0  0  0  0  0  0  0  0
    7.3280    5.7898   -6.0410 O   0  0  0  0  0  0  0  0  0  0  0  0
    7.1280    2.5626   -5.5195 N   0  0  0  0  0  0  0  0  0  0  0  0
  1  2  1  0
  1 23  1  0
  1 26  1  6
  2  3  1  0
  2 33  1  6
  3  4  1  0
  3 24  1  6
  5  4  1  0
  4 25  1  6
  5  6  1  1
 23  5  1  0
  6 19  1  0
  8  7  1  0
  7 12  1  0
  7 21  1  1
  8  9  1  0
  8 28  1  6
  9 10  1  0
  9 27  1  1
 10 11  1  0
 10 26  1  6
 12 11  1  0
 11 20  1  1
 13 14  1  0
 13 28  1  6
 13 29  1  0
 14 15  1  0
 14 30  1  1
 15 16  1  0
 15 22  1  6
 16 17  1  0
 16 31  1  6
 17 18  1  6
 17 29  1  0
 18 32  1  0
M  CHG  5  19   1  20   1  21   1  22   1  33   1
M  END
$$$$
6np5_ligand
     RDKit          3D

 33 35  0  0  0  0  0  0  0  0999 V2000
    7.4563    1.4027   -3.3187 C   0  0  2  0  0  0  0  0  0  0  0  0
    8.0859    1.7396   -4.5541 C   0  0  1  0  0  0  0  0  0  0  0  0
    8.5800    0.4504   -5.2479 C   0  0  2  0  0  0  0  0  0  0  0  0
    9.3249   -0.5582   -4.3206 C   0  0  1  0  0  0  0  0  0  0  0  0
    8.2938   -0.8524   -3.2910 C   0  0  1  0  0  0  0  0  0  0  0  0
    8.9673   -1.8197   -2.2558 C   0  0  0  0  0  0  0  0  0  0  0  0
    3.1468    3.4035   -1.4254 C   0  0  1  0  0  0  0  0  0  0  0  0
    4.0975    4.1237   -2.3445 C   0  0  1  0  0  0  0  0  0  0  0  0
    4.8862    3.2074   -3.1643 C   0  0  2  0  0  0  0  0  0  0  0  0
    5.5591    2.2109   -2.3656 C   0  0  1  0  0  0  0  0  0  0  0  0
    4.5905    1.4515   -1.5300 C   0  0  2  0  0  0  0  0  0  0  0  0
    3.9697    2.4929   -0.5909 C   0  0  0  0  0  0  0  0  0  0  0  0
    4.0285    5.8389   -3.7421 C   0  0  1  0  0  0  0  0  0  0  0  0
    2.8999    6.7078   -4.2956 C   0  0  1  0  0  0  0  0  0  0  0  0
    2.7483    6.5053   -5.7712 C   0  0  2  0  0  0  0  0  0  0  0  0
    4.0297    6.6240   -6.5774 C   0  0  1  0  0  0  0  0  0  0  0  0
    4.9762    5.5554   -5.9511 C   0  0  1  0  0  0  0  0  0  0  0  0
    6.4509    5.5907   -6.6823 C   0  0  0  0  0  0  0  0  0  0  0  0
    8.2711   -2.0495   -1.1163 N   0  0  0  0  0  0  0  0  0  0  0  0
    5.3134    0.4785   -0.7269 N   0  0  0  0  0  0  0  0  0  0  0  0
    2.4392    4.3903   -0.5203 N   0  0  0  0  0  0  0  0  0  0  0  0
    1.7325    7.5553   -6.2913 N   0  0  0  0  0  0  0  0  0  0  0  0
    7.8234    0.1746   -2.6231 O   0  0  0  0  0  0  0  0  0  0  0  0
    9.2611    0.8104   -6.4864 O   0  0  0  0  0  0  0  0  0  0  0  0
    9.6474   -1.6970   -4.9894 O   0  0  0  0  0  0  0  0  0  0  0  0
    6.0368    1.5155   -3.3334 O   0  0  0  0  0  0  0  0  0  0  0  0
    5.9062    4.0985   -3.8187 O   0  0  0  0  0  0  0  0  0  0  0  0
    3.4701    4.6391   -3.2236 O   0  0  0  0  0  0  0  0  0  0  0  0
    5.1483    5.6666   -4.5637 O   0  0  0  0  0  0  0  0  0  0  0  0
    1.5958    6.4041   -3.6568 O   0  0  0  0  0  0  0  0  0  0  0  0
    3.7936    6.3509   -7.9311 O   0  0  0  0  0  0  0  0  0  0  0  0
    7.4011    5.4879   -5.8599 O   0  0  0  0  0  0  0  0  0  0  0  0
    7.1555    2.4902   -5.4657 N   0  0  0  0  0  0  0  0  0  0  0  0
  1  2  1  0
  1 23  1  0
  1 26  1  6
  2  3  1  0
  2 33  1  6
  3  4  1  0
  3 24  1  6
  5  4  1  0
  4 25  1  6
  5  6  1  1
 23  5  1  0
  6 19  1  0
  8  7  1  0
  7 12  1  0
  7 21  1  1
  8  9  1  0
  8 28  1  6
  9 10  1  0
  9 27  1  1
 10 11  1  0
 10 26  1  6
 12 11  1  0
 11 20  1  1
 13 14  1  0
 13 28  1  6
 13 29  1  0
 14 15  1  0
 14 30  1  1
 15 16  1  0
 15 22  1  6
 16 17  1  0
 16 31  1  6
 17 18  1  6
 17 29  1  0
 18 32  1  0
M  CHG  5  19   1  20   1  21   1  22   1  33   1
M  END
$$$$
6np5_ligand
     RDKit          3D

 33 35  0  0  0  0  0  0  0  0999 V2000
    7.5389    1.5039   -3.2639 C   0  0  2  0  0  0  0  0  0  0  0  0
    8.1793    1.8203   -4.5062 C   0  0  1  0  0  0  0  0  0  0  0  0
    8.6430    0.5280   -5.2180 C   0  0  2  0  0  0  0  0  0  0  0  0
    9.3667   -0.5037   -4.3049 C   0  0  1  0  0  0  0  0  0  0  0  0
    8.3337   -0.7797   -3.2678 C   0  0  1  0  0  0  0  0  0  0  0  0
    8.9797   -1.7692   -2.2421 C   0  0  0  0  0  0  0  0  0  0  0  0
    3.1916    3.5083   -1.3780 C   0  0  1  0  0  0  0  0  0  0  0  0
    4.1461    4.2139   -2.2983 C   0  0  1  0  0  0  0  0  0  0  0  0
    4.9387    3.3131   -3.0938 C   0  0  2  0  0  0  0  0  0  0  0  0
    5.6008    2.3049   -2.2989 C   0  0  1  0  0  0  0  0  0  0  0  0
    4.6093    1.5525   -1.4919 C   0  0  2  0  0  0  0  0  0  0  0  0
    4.0153    2.5938   -0.5201 C   0  0  0  0  0  0  0  0  0  0  0  0
    4.0888    5.9341   -3.7178 C   0  0  1  0  0  0  0  0  0  0  0  0
    2.9381    6.7799   -4.2976 C   0  0  1  0  0  0  0  0  0  0  0  0
    2.8098    6.5474   -5.7742 C   0  0  2  0  0  0  0  0  0  0  0  0
    4.0986    6.6580   -6.5750 C   0  0  1  0  0  0  0  0  0  0  0  0
    5.0793    5.6099   -5.9132 C   0  0  1  0  0  0  0  0  0  0  0  0
    6.5800    5.6431   -6.6215 C   0  0  0  0  0  0  0  0  0  0  0  0
    8.2312   -1.9443   -1.1108 N   0  0  0  0  0  0  0  0  0  0  0  0
    5.2327    0.5138   -0.7371 N   0  0  0  0  0  0  0  0  0  0  0  0
    2.4555    4.4530   -0.5001 N   0  0  0  0  0  0  0  0  0  0  0  0
    1.7786    7.5740   -6.3394 N   0  0  0  0  0  0  0  0  0  0  0  0
    7.9033    0.2767   -2.5787 O   0  0  0  0  0  0  0  0  0  0  0  0
    9.3421    0.8694   -6.4459 O   0  0  0  0  0  0  0  0  0  0  0  0
    9.6802   -1.6431   -4.9792 O   0  0  0  0  0  0  0  0  0  0  0  0
    6.0943    1.6122   -3.2659 O   0  0  0  0  0  0  0  0  0  0  0  0
    5.9509    4.2045   -3.7254 O   0  0  0  0  0  0  0  0  0  0  0  0
    3.5204    4.7166   -3.1862 O   0  0  0  0  0  0  0  0  0  0  0  0
    5.2216    5.7590   -4.5180 O   0  0  0  0  0  0  0  0  0  0  0  0
    1.6405    6.4641   -3.6849 O   0  0  0  0  0  0  0  0  0  0  0  0
    3.8623    6.3459   -7.9204 O   0  0  0  0  0  0  0  0  0  0  0  0
    7.5181    5.5351   -5.7721 O   0  0  0  0  0  0  0  0  0  0  0  0
    7.2738    2.6041   -5.3972 N   0  0  0  0  0  0  0  0  0  0  0  0
  1  2  1  0
  1 23  1  0
  1 26  1  6
  2  3  1  0
  2 33  1  6
  3  4  1  0
  3 24  1  6
  5  4  1  0
  4 25  1  6
  5  6  1  1
 23  5  1  0
  6 19  1  0
  8  7  1  0
  7 12  1  0
  7 21  1  1
  8  9  1  0
  8 28  1  6
  9 10  1  0
  9 27  1  1
 10 11  1  0
 10 26  1  6
 12 11  1  0
 11 20  1  1
 13 14  1  0
 13 28  1  6
 13 29  1  0
 14 15  1  0
 14 30  1  1
 15 16  1  0
 15 22  1  6
 16 17  1  0
 16 31  1  6
 17 18  1  6
 17 29  1  0
 18 32  1  0
M  CHG  5  19   1  20   1  21   1  22   1  33   1
M  END
$$$$
6np5_ligand
     RDKit          3D

 33 35  0  0  0  0  0  0  0  0999 V2000
    7.5975    1.4398   -3.2115 C   0  0  2  0  0  0  0  0  0  0  0  0
    8.1745    1.7506   -4.4786 C   0  0  1  0  0  0  0  0  0  0  0  0
    8.6511    0.4341   -5.1805 C   0  0  2  0  0  0  0  0  0  0  0  0
    9.4468   -0.5355   -4.2508 C   0  0  1  0  0  0  0  0  0  0  0  0
    8.4653   -0.8433   -3.1794 C   0  0  1  0  0  0  0  0  0  0  0  0
    9.1665   -1.8063   -2.1483 C   0  0  0  0  0  0  0  0  0  0  0  0
    3.2232    3.4795   -1.3869 C   0  0  1  0  0  0  0  0  0  0  0  0
    4.1738    4.1574   -2.3271 C   0  0  1  0  0  0  0  0  0  0  0  0
    5.0067    3.2735   -3.1003 C   0  0  2  0  0  0  0  0  0  0  0  0
    5.6295    2.2368   -2.2835 C   0  0  1  0  0  0  0  0  0  0  0  0
    4.5959    1.4916   -1.5205 C   0  0  2  0  0  0  0  0  0  0  0  0
    4.0040    2.5227   -0.5435 C   0  0  0  0  0  0  0  0  0  0  0  0
    4.1371    5.8391   -3.7302 C   0  0  1  0  0  0  0  0  0  0  0  0
    2.9945    6.7284   -4.2761 C   0  0  1  0  0  0  0  0  0  0  0  0
    2.8738    6.4911   -5.7718 C   0  0  2  0  0  0  0  0  0  0  0  0
    4.1818    6.6016   -6.5606 C   0  0  1  0  0  0  0  0  0  0  0  0
    5.1542    5.5360   -5.9190 C   0  0  1  0  0  0  0  0  0  0  0  0
    6.6608    5.6148   -6.6109 C   0  0  0  0  0  0  0  0  0  0  0  0
    8.4191   -2.0815   -1.0567 N   0  0  0  0  0  0  0  0  0  0  0  0
    5.1544    0.4002   -0.7725 N   0  0  0  0  0  0  0  0  0  0  0  0
    2.5573    4.4657   -0.4667 N   0  0  0  0  0  0  0  0  0  0  0  0
    1.8710    7.5467   -6.3406 N   0  0  0  0  0  0  0  0  0  0  0  0
    8.0196    0.2301   -2.4950 O   0  0  0  0  0  0  0  0  0  0  0  0
    9.3137    0.7882   -6.4156 O   0  0  0  0  0  0  0  0  0  0  0  0
    9.8392   -1.6626   -4.8889 O   0  0  0  0  0  0  0  0  0  0  0  0
    6.1408    1.5273   -3.2098 O   0  0  0  0  0  0  0  0  0  0  0  0
    6.0215    4.1481   -3.7123 O   0  0  0  0  0  0  0  0  0  0  0  0
    3.5544    4.6119   -3.2302 O   0  0  0  0  0  0  0  0  0  0  0  0
    5.2697    5.6567   -4.5266 O   0  0  0  0  0  0  0  0  0  0  0  0
    1.6967    6.4615   -3.6732 O   0  0  0  0  0  0  0  0  0  0  0  0
    3.9477    6.3058   -7.9175 O   0  0  0  0  0  0  0  0  0  0  0  0
    7.5840    5.3709   -5.7900 O   0  0  0  0  0  0  0  0  0  0  0  0
    7.2233    2.5093   -5.3449 N   0  0  0  0  0  0  0  0  0  0  0  0
  1  2  1  0
  1 23  1  0
  1 26  1  6
  2  3  1  0
  2 33  1  6
  3  4  1  0
  3 24  1  6
  5  4  1  0
  4 25  1  6
  5  6  1  1
 23  5  1  0
  6 19  1  0
  8  7  1  0
  7 12  1  0
  7 21  1  1
  8  9  1  0
  8 28  1  6
  9 10  1  0
  9 27  1  1
 10 11  1  0
 10 26  1  6
 12 11  1  0
 11 20  1  1
 13 14  1  0
 13 28  1  6
 13 29  1  0
 14 15  1  0
 14 30  1  1
 15 16  1  0
 15 22  1  6
 16 17  1  0
 16 31  1  6
 17 18  1  6
 17 29  1  0
 18 32  1  0
M  CHG  5  19   1  20   1  21   1  22   1  33   1
M  END
$$$$
6np5_ligand
     RDKit          3D

 33 35  0  0  0  0  0  0  0  0999 V2000
    7.5589    1.4718   -3.2154 C   0  0  2  0  0  0  0  0  0  0  0  0
    8.1625    1.7725   -4.4837 C   0  0  1  0  0  0  0  0  0  0  0  0
    8.6245    0.4507   -5.1932 C   0  0  2  0  0  0  0  0  0  0  0  0
    9.4243   -0.5028   -4.2561 C   0  0  1  0  0  0  0  0  0  0  0  0
    8.4478   -0.8223   -3.1814 C   0  0  1  0  0  0  0  0  0  0  0  0
    9.1402   -1.7883   -2.1472 C   0  0  0  0  0  0  0  0  0  0  0  0
    3.2216    3.4739   -1.3966 C   0  0  1  0  0  0  0  0  0  0  0  0
    4.1457    4.1431   -2.3501 C   0  0  1  0  0  0  0  0  0  0  0  0
    4.9558    3.2593   -3.1392 C   0  0  2  0  0  0  0  0  0  0  0  0
    5.5675    2.2331   -2.3173 C   0  0  1  0  0  0  0  0  0  0  0  0
    4.5525    1.5039   -1.5404 C   0  0  2  0  0  0  0  0  0  0  0  0
    4.0032    2.5352   -0.5628 C   0  0  0  0  0  0  0  0  0  0  0  0
    4.0947    5.9038   -3.7222 C   0  0  1  0  0  0  0  0  0  0  0  0
    2.9679    6.8087   -4.3310 C   0  0  1  0  0  0  0  0  0  0  0  0
    2.8647    6.5120   -5.8225 C   0  0  2  0  0  0  0  0  0  0  0  0
    4.1751    6.5974   -6.5856 C   0  0  1  0  0  0  0  0  0  0  0  0
    5.1602    5.5627   -5.8731 C   0  0  1  0  0  0  0  0  0  0  0  0
    6.6743    5.6698   -6.5490 C   0  0  0  0  0  0  0  0  0  0  0  0
    8.3732   -2.0096   -1.0238 N   0  0  0  0  0  0  0  0  0  0  0  0
    5.0860    0.3998   -0.8376 N   0  0  0  0  0  0  0  0  0  0  0  0
    2.5274    4.4305   -0.5085 N   0  0  0  0  0  0  0  0  0  0  0  0
    1.9021    7.5673   -6.4527 N   0  0  0  0  0  0  0  0  0  0  0  0
    8.0304    0.2796   -2.4891 O   0  0  0  0  0  0  0  0  0  0  0  0
    9.3235    0.8286   -6.4027 O   0  0  0  0  0  0  0  0  0  0  0  0
    9.8615   -1.6296   -4.8717 O   0  0  0  0  0  0  0  0  0  0  0  0
    6.0791    1.5232   -3.2218 O   0  0  0  0  0  0  0  0  0  0  0  0
    5.9487    4.0746   -3.8059 O   0  0  0  0  0  0  0  0  0  0  0  0
    3.5073    4.6631   -3.2444 O   0  0  0  0  0  0  0  0  0  0  0  0
    5.2522    5.7514   -4.4925 O   0  0  0  0  0  0  0  0  0  0  0  0
    1.6652    6.6123   -3.7503 O   0  0  0  0  0  0  0  0  0  0  0  0
    3.9713    6.2295   -7.9448 O   0  0  0  0  0  0  0  0  0  0  0  0
    7.5744    5.2919   -5.7135 O   0  0  0  0  0  0  0  0  0  0  0  0
    7.2289    2.5559   -5.3304 N   0  0  0  0  0  0  0  0  0  0  0  0
  1  2  1  0
  1 23  1  0
  1 26  1  6
  2  3  1  0
  2 33  1  6
  3  4  1  0
  3 24  1  6
  5  4  1  0
  4 25  1  6
  5  6  1  1
 23  5  1  0
  6 19  1  0
  8  7  1  0
  7 12  1  0
  7 21  1  1
  8  9  1  0
  8 28  1  6
  9 10  1  0
  9 27  1  1
 10 11  1  0
 10 26  1  6
 12 11  1  0
 11 20  1  1
 13 14  1  0
 13 28  1  6
 13 29  1  0
 14 15  1  0
 14 30  1  1
 15 16  1  0
 15 22  1  6
 16 17  1  0
 16 31  1  6
 17 18  1  6
 17 29  1  0
 18 32  1  0
M  CHG  5  19   1  20   1  21   1  22   1  33   1
M  END
$$$$
6np5_ligand
     RDKit          3D

 33 35  0  0  0  0  0  0  0  0999 V2000
    7.5474    1.6228   -3.0797 C   0  0  2  0  0  0  0  0  0  0  0  0
    8.1916    1.9417   -4.3204 C   0  0  1  0  0  0  0  0  0  0  0  0
    8.5915    0.6175   -5.0754 C   0  0  2  0  0  0  0  0  0  0  0  0
    9.3495   -0.3692   -4.1469 C   0  0  1  0  0  0  0  0  0  0  0  0
    8.3673   -0.6966   -3.0758 C   0  0  1  0  0  0  0  0  0  0  0  0
    9.0111   -1.7285   -2.0783 C   0  0  0  0  0  0  0  0  0  0  0  0
    3.1592    3.6036   -1.3775 C   0  0  1  0  0  0  0  0  0  0  0  0
    4.0804    4.2975   -2.3140 C   0  0  1  0  0  0  0  0  0  0  0  0
    4.9569    3.4394   -3.0898 C   0  0  2  0  0  0  0  0  0  0  0  0
    5.5377    2.3902   -2.2718 C   0  0  1  0  0  0  0  0  0  0  0  0
    4.5045    1.6698   -1.5215 C   0  0  2  0  0  0  0  0  0  0  0  0
    3.9697    2.6816   -0.5243 C   0  0  0  0  0  0  0  0  0  0  0  0
    3.9836    6.0922   -3.6359 C   0  0  1  0  0  0  0  0  0  0  0  0
    2.8469    6.9826   -4.2711 C   0  0  1  0  0  0  0  0  0  0  0  0
    2.7543    6.6566   -5.7585 C   0  0  2  0  0  0  0  0  0  0  0  0
    4.0551    6.7281   -6.5138 C   0  0  1  0  0  0  0  0  0  0  0  0
    5.0587    5.7215   -5.7645 C   0  0  1  0  0  0  0  0  0  0  0  0
    6.5697    5.8231   -6.4482 C   0  0  0  0  0  0  0  0  0  0  0  0
    8.0873   -2.0105   -1.0131 N   0  0  0  0  0  0  0  0  0  0  0  0
    4.9640    0.5142   -0.8933 N   0  0  0  0  0  0  0  0  0  0  0  0
    2.4091    4.5429   -0.5028 N   0  0  0  0  0  0  0  0  0  0  0  0
    1.8011    7.7070   -6.4234 N   0  0  0  0  0  0  0  0  0  0  0  0
    8.0090    0.4174   -2.3419 O   0  0  0  0  0  0  0  0  0  0  0  0
    9.2436    0.9670   -6.2807 O   0  0  0  0  0  0  0  0  0  0  0  0
    9.7949   -1.4867   -4.7718 O   0  0  0  0  0  0  0  0  0  0  0  0
    6.0753    1.6814   -3.1342 O   0  0  0  0  0  0  0  0  0  0  0  0
    5.9451    4.2694   -3.7089 O   0  0  0  0  0  0  0  0  0  0  0  0
    3.4225    4.8234   -3.1936 O   0  0  0  0  0  0  0  0  0  0  0  0
    5.1405    5.9464   -4.3908 O   0  0  0  0  0  0  0  0  0  0  0  0
    1.5391    6.7932   -3.6949 O   0  0  0  0  0  0  0  0  0  0  0  0
    3.8476    6.3184   -7.8637 O   0  0  0  0  0  0  0  0  0  0  0  0
    7.4816    5.5661   -5.7037 O   0  0  0  0  0  0  0  0  0  0  0  0
    7.3067    2.8045   -5.1439 N   0  0  0  0  0  0  0  0  0  0  0  0
  1  2  1  0
  1 23  1  0
  1 26  1  6
  2  3  1  0
  2 33  1  6
  3  4  1  0
  3 24  1  6
  5  4  1  0
  4 25  1  6
  5  6  1  1
 23  5  1  0
  6 19  1  0
  8  7  1  0
  7 12  1  0
  7 21  1  1
  8  9  1  0
  8 28  1  6
  9 10  1  0
  9 27  1  1
 10 11  1  0
 10 26  1  6
 12 11  1  0
 11 20  1  1
 13 14  1  0
 13 28  1  6
 13 29  1  0
 14 15  1  0
 14 30  1  1
 15 16  1  0
 15 22  1  6
 16 17  1  0
 16 31  1  6
 17 18  1  6
 17 29  1  0
 18 32  1  0
M  CHG  5  19   1  20   1  21   1  22   1  33   1
M  END
$$$$
6np5_ligand
     RDKit          3D

 33 35  0  0  0  0  0  0  0  0999 V2000
    7.5065    1.6261   -3.0792 C   0  0  2  0  0  0  0  0  0  0  0  0
    8.1688    1.9764   -4.3167 C   0  0  1  0  0  0  0  0  0  0  0  0
    8.5765    0.6695   -5.0967 C   0  0  2  0  0  0  0  0  0  0  0  0
    9.3070   -0.3587   -4.1997 C   0  0  1  0  0  0  0  0  0  0  0  0
    8.3254   -0.6955   -3.1219 C   0  0  1  0  0  0  0  0  0  0  0  0
    8.9579   -1.7765   -2.1655 C   0  0  0  0  0  0  0  0  0  0  0  0
    3.1325    3.6102   -1.4110 C   0  0  1  0  0  0  0  0  0  0  0  0
    4.0361    4.2896   -2.3713 C   0  0  1  0  0  0  0  0  0  0  0  0
    4.8795    3.3957   -3.1477 C   0  0  2  0  0  0  0  0  0  0  0  0
    5.4796    2.3716   -2.3026 C   0  0  1  0  0  0  0  0  0  0  0  0
    4.4564    1.6854   -1.5193 C   0  0  2  0  0  0  0  0  0  0  0  0
    3.9484    2.7231   -0.5410 C   0  0  0  0  0  0  0  0  0  0  0  0
    3.9772    6.1360   -3.6616 C   0  0  1  0  0  0  0  0  0  0  0  0
    2.8367    7.0606   -4.3046 C   0  0  1  0  0  0  0  0  0  0  0  0
    2.7042    6.7155   -5.7900 C   0  0  2  0  0  0  0  0  0  0  0  0
    3.9889    6.7190   -6.5704 C   0  0  1  0  0  0  0  0  0  0  0  0
    5.0029    5.7090   -5.8120 C   0  0  1  0  0  0  0  0  0  0  0  0
    6.5094    5.7805   -6.5032 C   0  0  0  0  0  0  0  0  0  0  0  0
    8.0631   -1.9973   -1.0480 N   0  0  0  0  0  0  0  0  0  0  0  0
    4.9126    0.5279   -0.8875 N   0  0  0  0  0  0  0  0  0  0  0  0
    2.3487    4.5483   -0.5773 N   0  0  0  0  0  0  0  0  0  0  0  0
    1.7786    7.7909   -6.4550 N   0  0  0  0  0  0  0  0  0  0  0  0
    7.9857    0.4127   -2.3597 O   0  0  0  0  0  0  0  0  0  0  0  0
    9.2389    1.0460   -6.2907 O   0  0  0  0  0  0  0  0  0  0  0  0
    9.6948   -1.4833   -4.8823 O   0  0  0  0  0  0  0  0  0  0  0  0
    6.0269    1.6393   -3.1313 O   0  0  0  0  0  0  0  0  0  0  0  0
    5.8437    4.1625   -3.8495 O   0  0  0  0  0  0  0  0  0  0  0  0
    3.3765    4.8737   -3.2301 O   0  0  0  0  0  0  0  0  0  0  0  0
    5.1150    5.9381   -4.4551 O   0  0  0  0  0  0  0  0  0  0  0  0
    1.5475    6.9141   -3.6936 O   0  0  0  0  0  0  0  0  0  0  0  0
    3.7380    6.2323   -7.8959 O   0  0  0  0  0  0  0  0  0  0  0  0
    7.4069    5.4369   -5.7658 O   0  0  0  0  0  0  0  0  0  0  0  0
    7.2854    2.8556   -5.1297 N   0  0  0  0  0  0  0  0  0  0  0  0
  1  2  1  0
  1 23  1  0
  1 26  1  6
  2  3  1  0
  2 33  1  6
  3  4  1  0
  3 24  1  6
  5  4  1  0
  4 25  1  6
  5  6  1  1
 23  5  1  0
  6 19  1  0
  8  7  1  0
  7 12  1  0
  7 21  1  1
  8  9  1  0
  8 28  1  6
  9 10  1  0
  9 27  1  1
 10 11  1  0
 10 26  1  6
 12 11  1  0
 11 20  1  1
 13 14  1  0
 13 28  1  6
 13 29  1  0
 14 15  1  0
 14 30  1  1
 15 16  1  0
 15 22  1  6
 16 17  1  0
 16 31  1  6
 17 18  1  6
 17 29  1  0
 18 32  1  0
M  CHG  5  19   1  20   1  21   1  22   1  33   1
M  END
$$$$
6np5_ligand
     RDKit          3D

 33 35  0  0  0  0  0  0  0  0999 V2000
    9.0532    2.6384   -5.5710 C   0  0  2  0  0  0  0  0  0  0  0  0
    9.7156    2.9887   -6.8086 C   0  0  1  0  0  0  0  0  0  0  0  0
   10.1232    1.6818   -7.5885 C   0  0  2  0  0  0  0  0  0  0  0  0
   10.8537    0.6536   -6.6916 C   0  0  1  0  0  0  0  0  0  0  0  0
    9.8721    0.3168   -5.6138 C   0  0  1  0  0  0  0  0  0  0  0  0
   10.5047   -0.7642   -4.6573 C   0  0  0  0  0  0  0  0  0  0  0  0
    4.6792    4.6225   -3.9029 C   0  0  1  0  0  0  0  0  0  0  0  0
    5.5828    5.3019   -4.8632 C   0  0  1  0  0  0  0  0  0  0  0  0
    6.4263    4.4081   -5.6395 C   0  0  2  0  0  0  0  0  0  0  0  0
    7.0264    3.3839   -4.7945 C   0  0  1  0  0  0  0  0  0  0  0  0
    6.0031    2.6978   -4.0112 C   0  0  2  0  0  0  0  0  0  0  0  0
    5.4952    3.7354   -3.0328 C   0  0  0  0  0  0  0  0  0  0  0  0
    5.5239    7.1483   -6.1535 C   0  0  1  0  0  0  0  0  0  0  0  0
    4.3835    8.0729   -6.7965 C   0  0  1  0  0  0  0  0  0  0  0  0
    4.2510    7.7279   -8.2818 C   0  0  2  0  0  0  0  0  0  0  0  0
    5.5356    7.7313   -9.0622 C   0  0  1  0  0  0  0  0  0  0  0  0
    6.5496    6.7213   -8.3038 C   0  0  1  0  0  0  0  0  0  0  0  0
    8.0561    6.7929   -8.9950 C   0  0  0  0  0  0  0  0  0  0  0  0
    9.6099   -0.9850   -3.5398 N   0  0  0  0  0  0  0  0  0  0  0  0
    6.4593    1.5402   -3.3793 N   0  0  0  0  0  0  0  0  0  0  0  0
    3.8955    5.5606   -3.0692 N   0  0  0  0  0  0  0  0  0  0  0  0
    3.3253    8.8033   -8.9468 N   0  0  0  0  0  0  0  0  0  0  0  0
    9.5325    1.4250   -4.8515 O   0  0  0  0  0  0  0  0  0  0  0  0
   10.7857    2.0583   -8.7826 O   0  0  0  0  0  0  0  0  0  0  0  0
   11.2416   -0.4710   -7.3742 O   0  0  0  0  0  0  0  0  0  0  0  0
    7.5737    2.6517   -5.6232 O   0  0  0  0  0  0  0  0  0  0  0  0
    7.3904    5.1748   -6.3414 O   0  0  0  0  0  0  0  0  0  0  0  0
    4.9232    5.8860   -5.7220 O   0  0  0  0  0  0  0  0  0  0  0  0
    6.6617    6.9504   -6.9470 O   0  0  0  0  0  0  0  0  0  0  0  0
    3.0942    7.9264   -6.1854 O   0  0  0  0  0  0  0  0  0  0  0  0
    5.2847    7.2446  -10.3878 O   0  0  0  0  0  0  0  0  0  0  0  0
    8.9537    6.4493   -8.2577 O   0  0  0  0  0  0  0  0  0  0  0  0
    8.8321    3.8680   -7.6215 N   0  0  0  0  0  0  0  0  0  0  0  0
  1  2  1  0
  1 23  1  0
  1 26  1  6
  2  3  1  0
  2 33  1  6
  3  4  1  0
  3 24  1  6
  5  4  1  0
  4 25  1  6
  5  6  1  1
 23  5  1  0
  6 19  1  0
  8  7  1  0
  7 12  1  0
  7 21  1  1
  8  9  1  0
  8 28  1  6
  9 10  1  0
  9 27  1  1
 10 11  1  0
 10 26  1  6
 12 11  1  0
 11 20  1  1
 13 14  1  0
 13 28  1  6
 13 29  1  0
 14 15  1  0
 14 30  1  1
 15 16  1  0
 15 22  1  6
 16 17  1  0
 16 31  1  6
 17 18  1  6
 17 29  1  0
 18 32  1  0
M  CHG  5  19   1  20   1  21   1  22   1  33   1
M  END
$$$$
