16_0


 33 36  0  0  0  0  0  0  0  0999 V2000
   10.0625    7.1688  -10.9128 C   0  0  0  0  0  0  0  0  0  0  0  0
   10.9073    7.9886  -10.1683 O   0  0  0  0  0  0  0  0  0  0  0  0
   10.9905    7.4055   -8.9007 C   0  0  0  0  0  0  0  0  0  0  0  0
    9.5840    6.9256   -8.6695 C   0  0  0  0  0  0  0  0  0  0  0  0
    9.4032    6.1398   -7.5683 O   0  0  0  0  0  0  0  0  0  0  0  0
    9.5032    6.0963   -9.9946 C   0  0  0  0  0  0  0  0  0  0  0  0
    8.2104    5.7420  -10.2848 O   0  0  0  0  0  0  0  0  0  0  0  0
    8.5886    6.3617   -7.0385 H   0  0  0  0  0  0  0  0  0  0  0  0
    7.9973    4.9176   -9.8120 H   0  0  0  0  0  0  0  0  0  0  0  0
    8.9869    3.8873  -13.7975 C   0  0  0  0  0  0  0  0  0  0  0  0
    9.8822    3.7145  -14.8045 N   0  0  0  0  0  0  0  0  0  0  0  0
   10.9869    4.4826  -14.8955 C   0  0  0  0  0  0  0  0  0  0  0  0
   11.9392    4.3153  -15.9473 N   0  0  0  0  0  0  0  0  0  0  0  0
   11.1491    5.4431  -13.9141 C   0  0  0  0  0  0  0  0  0  0  0  0
   12.1150    6.3450  -13.7233 N   0  0  0  0  0  0  0  0  0  0  0  0
   11.8171    7.0568  -12.6205 C   0  0  0  0  0  0  0  0  0  0  0  0
   10.6612    6.6230  -12.0910 N   0  0  0  0  0  0  0  0  0  0  0  0
   10.2492    5.6301  -12.8862 C   0  0  0  0  0  0  0  0  0  0  0  0
    9.1629    4.8331  -12.8455 N   0  0  0  0  0  0  0  0  0  0  0  0
   12.8772    3.8747  -15.8042 H   0  0  0  0  0  0  0  0  0  0  0  0
   11.6433    4.6673  -16.9041 H   0  0  0  0  0  0  0  0  0  0  0  0
    8.0103    1.6580  -14.2008 C   0  0  0  0  0  0  0  0  0  0  0  0
    7.8484    3.0346  -13.7752 N   0  0  0  0  0  0  0  0  0  0  0  0
    6.5556    3.5102  -13.3429 C   0  0  0  0  0  0  0  0  0  0  0  0
   11.6608    8.1984   -7.8670 C   0  0  0  0  0  0  0  0  0  0  0  0
   11.0719    8.2099   -6.6402 O   0  0  0  0  0  0  0  0  0  0  0  0
   11.4443    8.2389   -5.3504 C   0  0  0  0  0  0  0  0  0  0  0  0
   11.3765    7.0176   -4.6444 C   0  0  0  0  0  0  0  0  0  0  0  0
   11.7309    6.9370   -3.3184 C   0  0  0  0  0  0  0  0  0  0  0  0
   12.1656    8.0475   -2.6299 C   0  0  0  0  0  0  0  0  0  0  0  0
   12.5267    8.0281   -1.3275 F   0  0  0  0  0  0  0  0  0  0  0  0
   12.2265    9.2321   -3.3320 C   0  0  0  0  0  0  0  0  0  0  0  0
   11.8737    9.2778   -4.6252 N   0  0  0  0  0  0  0  0  0  0  0  0
 22 23  1  0  0  0
 23 24  1  0  0  0
 23 10  1  0  0  0
 10 11  2  0  0  0
 11 12  1  0  0  0
 12 13  1  0  0  0
 12 14  2  0  0  0
 14 15  1  0  0  0
 15 16  2  0  0  0
 16 17  1  0  0  0
 17  1  1  0  0  0
  1  2  1  0  0  0
  2  3  1  0  0  0
  3 25  1  0  0  0
 25 26  1  0  0  0
 26 27  1  0  0  0
 27 28  2  0  0  0
 28 29  1  0  0  0
 29 30  2  0  0  0
 30 31  1  0  0  0
 30 32  1  0  0  0
 32 33  2  0  0  0
  3  4  1  0  0  0
  4  5  1  0  0  0
  4  6  1  0  0  0
  6  7  1  0  0  0
 17 18  1  0  0  0
 18 19  2  0  0  0
 19 10  1  0  0  0
 18 14  1  0  0  0
  6  1  1  0  0  0
 33 27  1  0  0  0
 13 20  1  0  0  0
 13 21  1  0  0  0
  5  8  1  0  0  0
  7  9  1  0  0  0
M  END
> <minimizedAffinity>
-9.67270

$$$$
16_0


 33 36  0  0  0  0  0  0  0  0999 V2000
    8.7760    4.6913  -13.8514 C   0  0  0  0  0  0  0  0  0  0  0  0
    9.7570    5.6457  -13.5934 O   0  0  0  0  0  0  0  0  0  0  0  0
    9.7197    5.8730  -12.2147 C   0  0  0  0  0  0  0  0  0  0  0  0
    8.2461    5.8304  -11.9170 C   0  0  0  0  0  0  0  0  0  0  0  0
    7.9119    5.8402  -10.5937 O   0  0  0  0  0  0  0  0  0  0  0  0
    8.0167    4.4236  -12.5638 C   0  0  0  0  0  0  0  0  0  0  0  0
    6.6819    4.1720  -12.7535 O   0  0  0  0  0  0  0  0  0  0  0  0
    7.1514    6.4443  -10.3697 H   0  0  0  0  0  0  0  0  0  0  0  0
    6.3126    3.8016  -11.9318 H   0  0  0  0  0  0  0  0  0  0  0  0
    6.9310    0.7953  -15.1413 C   0  0  0  0  0  0  0  0  0  0  0  0
    7.8104   -0.0842  -15.6877 N   0  0  0  0  0  0  0  0  0  0  0  0
    9.1173    0.2235  -15.8147 C   0  0  0  0  0  0  0  0  0  0  0  0
   10.0563   -0.6886  -16.3868 N   0  0  0  0  0  0  0  0  0  0  0  0
    9.5007    1.4720  -15.3604 C   0  0  0  0  0  0  0  0  0  0  0  0
   10.6954    2.0680  -15.3429 N   0  0  0  0  0  0  0  0  0  0  0  0
   10.5507    3.2893  -14.7961 C   0  0  0  0  0  0  0  0  0  0  0  0
    9.2668    3.4925  -14.4568 N   0  0  0  0  0  0  0  0  0  0  0  0
    8.6198    2.3749  -14.8036 C   0  0  0  0  0  0  0  0  0  0  0  0
    7.3253    2.0132  -14.7020 N   0  0  0  0  0  0  0  0  0  0  0  0
   10.7596   -1.2156  -15.8193 H   0  0  0  0  0  0  0  0  0  0  0  0
   10.0059   -0.8095  -17.4403 H   0  0  0  0  0  0  0  0  0  0  0  0
    4.8708    0.6219  -13.7954 C   0  0  0  0  0  0  0  0  0  0  0  0
    5.5704    0.3916  -15.0444 N   0  0  0  0  0  0  0  0  0  0  0  0
    4.8862   -0.2336  -16.1514 C   0  0  0  0  0  0  0  0  0  0  0  0
   10.5226    6.9953  -11.7225 C   0  0  0  0  0  0  0  0  0  0  0  0
   10.0783    7.6021  -10.5883 O   0  0  0  0  0  0  0  0  0  0  0  0
   10.5228    7.8530   -9.3463 C   0  0  0  0  0  0  0  0  0  0  0  0
   10.5274    6.7665   -8.4440 C   0  0  0  0  0  0  0  0  0  0  0  0
   10.9589    6.9153   -7.1471 C   0  0  0  0  0  0  0  0  0  0  0  0
   11.4030    8.1324   -6.6807 C   0  0  0  0  0  0  0  0  0  0  0  0
   11.8383    8.3376   -5.4176 F   0  0  0  0  0  0  0  0  0  0  0  0
   11.3928    9.1833   -7.5727 C   0  0  0  0  0  0  0  0  0  0  0  0
   10.9657    9.0057   -8.8316 N   0  0  0  0  0  0  0  0  0  0  0  0
 22 23  1  0  0  0
 23 24  1  0  0  0
 23 10  1  0  0  0
 10 11  2  0  0  0
 11 12  1  0  0  0
 12 13  1  0  0  0
 12 14  2  0  0  0
 14 15  1  0  0  0
 15 16  2  0  0  0
 16 17  1  0  0  0
 17  1  1  0  0  0
  1  2  1  0  0  0
  2  3  1  0  0  0
  3 25  1  0  0  0
 25 26  1  0  0  0
 26 27  1  0  0  0
 27 28  2  0  0  0
 28 29  1  0  0  0
 29 30  2  0  0  0
 30 31  1  0  0  0
 30 32  1  0  0  0
 32 33  2  0  0  0
  3  4  1  0  0  0
  4  5  1  0  0  0
  4  6  1  0  0  0
  6  7  1  0  0  0
 17 18  1  0  0  0
 18 19  2  0  0  0
 19 10  1  0  0  0
 18 14  1  0  0  0
  6  1  1  0  0  0
 33 27  1  0  0  0
 13 20  1  0  0  0
 13 21  1  0  0  0
  5  8  1  0  0  0
  7  9  1  0  0  0
M  END
> <minimizedAffinity>
-9.18876

$$$$
16_0


 33 36  0  0  0  0  0  0  0  0999 V2000
   10.2214    6.0485  -10.1696 C   0  0  0  0  0  0  0  0  0  0  0  0
    9.8826    6.1728   -8.8243 O   0  0  0  0  0  0  0  0  0  0  0  0
    9.9355    7.5401   -8.5389 C   0  0  0  0  0  0  0  0  0  0  0  0
   11.1348    7.9914   -9.3263 C   0  0  0  0  0  0  0  0  0  0  0  0
   11.3264    9.3415   -9.3857 O   0  0  0  0  0  0  0  0  0  0  0  0
   10.6268    7.4161  -10.6905 C   0  0  0  0  0  0  0  0  0  0  0  0
   11.6329    7.3749  -11.6216 O   0  0  0  0  0  0  0  0  0  0  0  0
   12.2732    9.6249   -9.2565 H   0  0  0  0  0  0  0  0  0  0  0  0
   11.6883    8.2418  -12.0623 H   0  0  0  0  0  0  0  0  0  0  0  0
   10.1796    3.9257  -14.1367 C   0  0  0  0  0  0  0  0  0  0  0  0
    8.9519    3.4921  -14.5242 N   0  0  0  0  0  0  0  0  0  0  0  0
    7.8636    3.7005  -13.7556 C   0  0  0  0  0  0  0  0  0  0  0  0
    6.5649    3.2517  -14.1468 N   0  0  0  0  0  0  0  0  0  0  0  0
    8.0723    4.3734  -12.5658 C   0  0  0  0  0  0  0  0  0  0  0  0
    7.2209    4.7302  -11.6011 N   0  0  0  0  0  0  0  0  0  0  0  0
    7.9137    5.3702  -10.6410 C   0  0  0  0  0  0  0  0  0  0  0  0
    9.2134    5.4326  -10.9752 N   0  0  0  0  0  0  0  0  0  0  0  0
    9.3122    4.8195  -12.1594 C   0  0  0  0  0  0  0  0  0  0  0  0
   10.3643    4.5829  -12.9681 N   0  0  0  0  0  0  0  0  0  0  0  0
    5.8167    3.8971  -14.4903 H   0  0  0  0  0  0  0  0  0  0  0  0
    6.3904    2.2073  -14.0709 H   0  0  0  0  0  0  0  0  0  0  0  0
   12.3724    4.6118  -15.0352 C   0  0  0  0  0  0  0  0  0  0  0  0
   11.2748    3.6647  -15.0064 N   0  0  0  0  0  0  0  0  0  0  0  0
   11.3103    2.4914  -15.8469 C   0  0  0  0  0  0  0  0  0  0  0  0
    9.8194    7.9106   -7.1261 C   0  0  0  0  0  0  0  0  0  0  0  0
   10.9879    8.0678   -6.4466 O   0  0  0  0  0  0  0  0  0  0  0  0
   11.4030    8.1453   -5.1720 C   0  0  0  0  0  0  0  0  0  0  0  0
   11.4484    6.9345   -4.4463 C   0  0  0  0  0  0  0  0  0  0  0  0
   11.8548    6.9020   -3.1333 C   0  0  0  0  0  0  0  0  0  0  0  0
   12.2330    8.0522   -2.4774 C   0  0  0  0  0  0  0  0  0  0  0  0
   12.6409    8.0808   -1.1891 F   0  0  0  0  0  0  0  0  0  0  0  0
   12.1836    9.2259   -3.1984 C   0  0  0  0  0  0  0  0  0  0  0  0
   11.7825    9.2243   -4.4782 N   0  0  0  0  0  0  0  0  0  0  0  0
 22 23  1  0  0  0
 23 24  1  0  0  0
 23 10  1  0  0  0
 10 11  2  0  0  0
 11 12  1  0  0  0
 12 13  1  0  0  0
 12 14  2  0  0  0
 14 15  1  0  0  0
 15 16  2  0  0  0
 16 17  1  0  0  0
 17  1  1  0  0  0
  1  2  1  0  0  0
  2  3  1  0  0  0
  3 25  1  0  0  0
 25 26  1  0  0  0
 26 27  1  0  0  0
 27 28  2  0  0  0
 28 29  1  0  0  0
 29 30  2  0  0  0
 30 31  1  0  0  0
 30 32  1  0  0  0
 32 33  2  0  0  0
  3  4  1  0  0  0
  4  5  1  0  0  0
  4  6  1  0  0  0
  6  7  1  0  0  0
 17 18  1  0  0  0
 18 19  2  0  0  0
 19 10  1  0  0  0
 18 14  1  0  0  0
  6  1  1  0  0  0
 33 27  1  0  0  0
 13 20  1  0  0  0
 13 21  1  0  0  0
  5  8  1  0  0  0
  7  9  1  0  0  0
M  END
> <minimizedAffinity>
-9.07143

$$$$
16_0


 33 36  0  0  0  0  0  0  0  0999 V2000
    8.0111    6.1707  -13.0551 C   0  0  0  0  0  0  0  0  0  0  0  0
    9.2996    6.0886  -12.5328 O   0  0  0  0  0  0  0  0  0  0  0  0
    9.3636    7.0439  -11.5144 C   0  0  0  0  0  0  0  0  0  0  0  0
    8.5764    8.1884  -12.0910 C   0  0  0  0  0  0  0  0  0  0  0  0
    8.3104    9.2134  -11.2298 O   0  0  0  0  0  0  0  0  0  0  0  0
    7.2984    7.3366  -12.3929 C   0  0  0  0  0  0  0  0  0  0  0  0
    6.4389    8.0033  -13.2283 O   0  0  0  0  0  0  0  0  0  0  0  0
    8.4408   10.1201  -11.6227 H   0  0  0  0  0  0  0  0  0  0  0  0
    5.8679    8.5833  -12.6932 H   0  0  0  0  0  0  0  0  0  0  0  0
    8.6439    1.9487  -14.4766 C   0  0  0  0  0  0  0  0  0  0  0  0
    7.6343    1.0967  -14.1605 N   0  0  0  0  0  0  0  0  0  0  0  0
    6.5515    1.5206  -13.4773 C   0  0  0  0  0  0  0  0  0  0  0  0
    5.4803    0.6390  -13.1361 N   0  0  0  0  0  0  0  0  0  0  0  0
    6.5335    2.8573  -13.1240 C   0  0  0  0  0  0  0  0  0  0  0  0
    5.6252    3.5743  -12.4579 N   0  0  0  0  0  0  0  0  0  0  0  0
    6.0699    4.8414  -12.3677 C   0  0  0  0  0  0  0  0  0  0  0  0
    7.2644    4.9542  -12.9722 N   0  0  0  0  0  0  0  0  0  0  0  0
    7.5507    3.7339  -13.4378 C   0  0  0  0  0  0  0  0  0  0  0  0
    8.6084    3.2543  -14.1220 N   0  0  0  0  0  0  0  0  0  0  0  0
    4.5512    0.6560  -13.6167 H   0  0  0  0  0  0  0  0  0  0  0  0
    5.6759   -0.0508  -12.3532 H   0  0  0  0  0  0  0  0  0  0  0  0
   10.8657    2.2987  -15.4901 C   0  0  0  0  0  0  0  0  0  0  0  0
    9.7497    1.4201  -15.1989 N   0  0  0  0  0  0  0  0  0  0  0  0
    9.7779    0.0455  -15.6395 C   0  0  0  0  0  0  0  0  0  0  0  0
   10.6904    7.2953  -10.9461 C   0  0  0  0  0  0  0  0  0  0  0  0
   10.7392    8.1412   -9.8812 O   0  0  0  0  0  0  0  0  0  0  0  0
   10.9178    8.0696   -8.5523 C   0  0  0  0  0  0  0  0  0  0  0  0
   11.3747    9.2421   -7.9110 C   0  0  0  0  0  0  0  0  0  0  0  0
   11.5941    9.2764   -6.5542 C   0  0  0  0  0  0  0  0  0  0  0  0
   11.3756    8.1655   -5.7703 C   0  0  0  0  0  0  0  0  0  0  0  0
   11.5738    8.1407   -4.4335 F   0  0  0  0  0  0  0  0  0  0  0  0
   10.9297    7.0289   -6.4101 C   0  0  0  0  0  0  0  0  0  0  0  0
   10.7253    7.0277   -7.7356 N   0  0  0  0  0  0  0  0  0  0  0  0
 22 23  1  0  0  0
 23 24  1  0  0  0
 23 10  1  0  0  0
 10 11  2  0  0  0
 11 12  1  0  0  0
 12 13  1  0  0  0
 12 14  2  0  0  0
 14 15  1  0  0  0
 15 16  2  0  0  0
 16 17  1  0  0  0
 17  1  1  0  0  0
  1  2  1  0  0  0
  2  3  1  0  0  0
  3 25  1  0  0  0
 25 26  1  0  0  0
 26 27  1  0  0  0
 27 28  2  0  0  0
 28 29  1  0  0  0
 29 30  2  0  0  0
 30 31  1  0  0  0
 30 32  1  0  0  0
 32 33  2  0  0  0
  3  4  1  0  0  0
  4  5  1  0  0  0
  4  6  1  0  0  0
  6  7  1  0  0  0
 17 18  1  0  0  0
 18 19  2  0  0  0
 19 10  1  0  0  0
 18 14  1  0  0  0
  6  1  1  0  0  0
 33 27  1  0  0  0
 13 20  1  0  0  0
 13 21  1  0  0  0
  5  8  1  0  0  0
  7  9  1  0  0  0
M  END
> <minimizedAffinity>
-8.77128

$$$$
16_0


 33 36  0  0  0  0  0  0  0  0999 V2000
    8.3962    4.5025  -13.9819 C   0  0  0  0  0  0  0  0  0  0  0  0
    9.5433    5.2817  -13.8525 O   0  0  0  0  0  0  0  0  0  0  0  0
    9.6144    5.6409  -12.5036 C   0  0  0  0  0  0  0  0  0  0  0  0
    8.1732    5.8964  -12.1577 C   0  0  0  0  0  0  0  0  0  0  0  0
    7.9111    6.0917  -10.8326 O   0  0  0  0  0  0  0  0  0  0  0  0
    7.6650    4.5005  -12.6510 C   0  0  0  0  0  0  0  0  0  0  0  0
    6.2990    4.4802  -12.7729 O   0  0  0  0  0  0  0  0  0  0  0  0
    7.2826    6.8429  -10.6478 H   0  0  0  0  0  0  0  0  0  0  0  0
    5.9099    4.2626  -11.9069 H   0  0  0  0  0  0  0  0  0  0  0  0
   11.4491    2.6337  -16.7085 C   0  0  0  0  0  0  0  0  0  0  0  0
   11.2803    1.3000  -16.9035 N   0  0  0  0  0  0  0  0  0  0  0  0
   10.2705    0.6304  -16.3113 C   0  0  0  0  0  0  0  0  0  0  0  0
   10.0776   -0.7719  -16.5047 N   0  0  0  0  0  0  0  0  0  0  0  0
    9.4297    1.3755  -15.5050 C   0  0  0  0  0  0  0  0  0  0  0  0
    8.3587    1.0192  -14.7918 N   0  0  0  0  0  0  0  0  0  0  0  0
    7.8804    2.1139  -14.1717 C   0  0  0  0  0  0  0  0  0  0  0  0
    8.6348    3.1826  -14.4773 N   0  0  0  0  0  0  0  0  0  0  0  0
    9.5885    2.7295  -15.2977 C   0  0  0  0  0  0  0  0  0  0  0  0
   10.6155    3.3464  -15.9153 N   0  0  0  0  0  0  0  0  0  0  0  0
    9.3126   -1.1668  -17.0992 H   0  0  0  0  0  0  0  0  0  0  0  0
   10.7633   -1.4099  -16.0050 H   0  0  0  0  0  0  0  0  0  0  0  0
   13.1216    4.4462  -16.7673 C   0  0  0  0  0  0  0  0  0  0  0  0
   12.5396    3.2631  -17.3706 N   0  0  0  0  0  0  0  0  0  0  0  0
   13.0673    2.7513  -18.6132 C   0  0  0  0  0  0  0  0  0  0  0  0
   10.6280    6.6391  -12.1528 C   0  0  0  0  0  0  0  0  0  0  0  0
   10.3678    7.4021  -11.0564 O   0  0  0  0  0  0  0  0  0  0  0  0
   10.6115    7.3750   -9.7362 C   0  0  0  0  0  0  0  0  0  0  0  0
   11.6190    8.2429   -9.2605 C   0  0  0  0  0  0  0  0  0  0  0  0
   11.9505    8.2915   -7.9271 C   0  0  0  0  0  0  0  0  0  0  0  0
   11.3100    7.4935   -7.0056 C   0  0  0  0  0  0  0  0  0  0  0  0
   11.5934    7.4986   -5.6840 F   0  0  0  0  0  0  0  0  0  0  0  0
   10.3291    6.6519   -7.4846 C   0  0  0  0  0  0  0  0  0  0  0  0
   10.0290    6.6279   -8.7916 N   0  0  0  0  0  0  0  0  0  0  0  0
 22 23  1  0  0  0
 23 24  1  0  0  0
 23 10  1  0  0  0
 10 11  2  0  0  0
 11 12  1  0  0  0
 12 13  1  0  0  0
 12 14  2  0  0  0
 14 15  1  0  0  0
 15 16  2  0  0  0
 16 17  1  0  0  0
 17  1  1  0  0  0
  1  2  1  0  0  0
  2  3  1  0  0  0
  3 25  1  0  0  0
 25 26  1  0  0  0
 26 27  1  0  0  0
 27 28  2  0  0  0
 28 29  1  0  0  0
 29 30  2  0  0  0
 30 31  1  0  0  0
 30 32  1  0  0  0
 32 33  2  0  0  0
  3  4  1  0  0  0
  4  5  1  0  0  0
  4  6  1  0  0  0
  6  7  1  0  0  0
 17 18  1  0  0  0
 18 19  2  0  0  0
 19 10  1  0  0  0
 18 14  1  0  0  0
  6  1  1  0  0  0
 33 27  1  0  0  0
 13 20  1  0  0  0
 13 21  1  0  0  0
  5  8  1  0  0  0
  7  9  1  0  0  0
M  END
> <minimizedAffinity>
-8.49681

$$$$
16_0


 33 36  0  0  0  0  0  0  0  0999 V2000
    9.1058    5.3845  -13.3018 C   0  0  0  0  0  0  0  0  0  0  0  0
   10.0560    6.3264  -12.9148 O   0  0  0  0  0  0  0  0  0  0  0  0
   10.0816    6.2954  -11.5176 C   0  0  0  0  0  0  0  0  0  0  0  0
    8.6291    6.1211  -11.1686 C   0  0  0  0  0  0  0  0  0  0  0  0
    8.3653    5.8710   -9.8530 O   0  0  0  0  0  0  0  0  0  0  0  0
    8.4282    4.8460  -12.0540 C   0  0  0  0  0  0  0  0  0  0  0  0
    7.0976    4.5628  -12.2283 O   0  0  0  0  0  0  0  0  0  0  0  0
    7.5918    6.3827   -9.4879 H   0  0  0  0  0  0  0  0  0  0  0  0
    6.7889    4.0295  -11.4741 H   0  0  0  0  0  0  0  0  0  0  0  0
   12.1217    5.1789  -16.6347 C   0  0  0  0  0  0  0  0  0  0  0  0
   12.2914    3.9366  -17.1573 N   0  0  0  0  0  0  0  0  0  0  0  0
   11.5952    2.8812  -16.6882 C   0  0  0  0  0  0  0  0  0  0  0  0
   11.7604    1.5677  -17.2255 N   0  0  0  0  0  0  0  0  0  0  0  0
   10.7107    3.1387  -15.6571 C   0  0  0  0  0  0  0  0  0  0  0  0
    9.8894    2.3281  -14.9854 N   0  0  0  0  0  0  0  0  0  0  0  0
    9.2292    3.0598  -14.0688 C   0  0  0  0  0  0  0  0  0  0  0  0
    9.6162    4.3444  -14.1396 N   0  0  0  0  0  0  0  0  0  0  0  0
   10.5278    4.3941  -15.1166 C   0  0  0  0  0  0  0  0  0  0  0  0
   11.2509    5.4117  -15.6251 N   0  0  0  0  0  0  0  0  0  0  0  0
   11.0523    1.1105  -17.8452 H   0  0  0  0  0  0  0  0  0  0  0  0
   12.6571    1.0652  -16.9601 H   0  0  0  0  0  0  0  0  0  0  0  0
   12.6411    7.5888  -16.7287 C   0  0  0  0  0  0  0  0  0  0  0  0
   12.8955    6.2370  -17.1874 N   0  0  0  0  0  0  0  0  0  0  0  0
   13.9132    5.9906  -18.1814 C   0  0  0  0  0  0  0  0  0  0  0  0
   10.8592    7.3499  -10.8617 C   0  0  0  0  0  0  0  0  0  0  0  0
   10.2472    7.9988   -9.8338 O   0  0  0  0  0  0  0  0  0  0  0  0
   10.5520    8.4340   -8.6007 C   0  0  0  0  0  0  0  0  0  0  0  0
   11.9251    8.5622   -8.2960 C   0  0  0  0  0  0  0  0  0  0  0  0
   12.3467    8.9957   -7.0612 C   0  0  0  0  0  0  0  0  0  0  0  0
   11.4424    9.3211   -6.0751 C   0  0  0  0  0  0  0  0  0  0  0  0
   11.7982    9.7521   -4.8444 F   0  0  0  0  0  0  0  0  0  0  0  0
   10.1061    9.1911   -6.3870 C   0  0  0  0  0  0  0  0  0  0  0  0
    9.7270    8.7654   -7.6011 N   0  0  0  0  0  0  0  0  0  0  0  0
 22 23  1  0  0  0
 23 24  1  0  0  0
 23 10  1  0  0  0
 10 11  2  0  0  0
 11 12  1  0  0  0
 12 13  1  0  0  0
 12 14  2  0  0  0
 14 15  1  0  0  0
 15 16  2  0  0  0
 16 17  1  0  0  0
 17  1  1  0  0  0
  1  2  1  0  0  0
  2  3  1  0  0  0
  3 25  1  0  0  0
 25 26  1  0  0  0
 26 27  1  0  0  0
 27 28  2  0  0  0
 28 29  1  0  0  0
 29 30  2  0  0  0
 30 31  1  0  0  0
 30 32  1  0  0  0
 32 33  2  0  0  0
  3  4  1  0  0  0
  4  5  1  0  0  0
  4  6  1  0  0  0
  6  7  1  0  0  0
 17 18  1  0  0  0
 18 19  2  0  0  0
 19 10  1  0  0  0
 18 14  1  0  0  0
  6  1  1  0  0  0
 33 27  1  0  0  0
 13 20  1  0  0  0
 13 21  1  0  0  0
  5  8  1  0  0  0
  7  9  1  0  0  0
M  END
> <minimizedAffinity>
-7.67140

$$$$
