16_1


 39 43  0  0  0  0  0  0  0  0999 V2000
   10.6955    6.7261  -11.9772 C   0  0  0  0  0  0  0  0  0  0  0  0
   12.0048    6.7446  -12.3714 N   0  0  0  0  0  0  0  0  0  0  0  0
   12.1401    6.1083  -13.5147 N   0  0  0  0  0  0  0  0  0  0  0  0
   10.9483    5.6556  -13.9088 C   0  0  0  0  0  0  0  0  0  0  0  0
    9.9835    6.0368  -12.9368 C   0  0  0  0  0  0  0  0  0  0  0  0
    8.5862    5.7085  -13.0369 C   0  0  0  0  0  0  0  0  0  0  0  0
    8.4198    4.1804  -13.0049 C   0  0  0  0  0  0  0  0  0  0  0  0
    8.6485    3.6201  -14.3901 C   0  0  0  0  0  0  0  0  0  0  0  0
   10.0782    3.5133  -14.7962 C   0  0  0  0  0  0  0  0  0  0  0  0
   10.8014    2.9106  -13.7771 O   0  0  0  0  0  0  0  0  0  0  0  0
   10.7027    4.8671  -15.1733 C   0  0  0  0  0  0  0  0  0  0  0  0
   12.8173    7.1830  -11.8784 H   0  0  0  0  0  0  0  0  0  0  0  0
   10.2757    2.2809  -13.2490 H   0  0  0  0  0  0  0  0  0  0  0  0
   10.3926    8.1631   -8.0434 N   0  0  0  0  0  0  0  0  0  0  0  0
    9.5641    7.0125   -8.4047 C   0  0  0  0  0  0  0  0  0  0  0  0
   10.1199    6.3186   -9.6023 C   0  0  0  0  0  0  0  0  0  0  0  0
   10.2514    7.3555  -10.7339 C   0  0  0  0  0  0  0  0  0  0  0  0
   11.4129    8.2357  -10.2011 C   0  0  0  0  0  0  0  0  0  0  0  0
   10.8144    9.0793   -9.0853 C   0  0  0  0  0  0  0  0  0  0  0  0
   11.5329    8.8456   -4.1201 C   0  0  0  0  0  0  0  0  0  0  0  0
   11.4763    7.5547   -4.5997 C   0  0  0  0  0  0  0  0  0  0  0  0
   11.1007    7.3714   -5.8818 N   0  0  0  0  0  0  0  0  0  0  0  0
   10.7844    8.3899   -6.6954 C   0  0  0  0  0  0  0  0  0  0  0  0
   10.8465    9.6233   -6.2107 N   0  0  0  0  0  0  0  0  0  0  0  0
   11.2102    9.9265   -4.9408 C   0  0  0  0  0  0  0  0  0  0  0  0
   12.6208    8.3254   -1.9591 C   0  0  0  0  0  0  0  0  0  0  0  0
   11.9043    9.1648   -2.8215 O   0  0  0  0  0  0  0  0  0  0  0  0
    7.5394    6.4168  -12.2933 C   0  0  0  0  0  0  0  0  0  0  0  0
    7.5679    7.7900  -12.4286 F   0  0  0  0  0  0  0  0  0  0  0  0
    7.2864    5.9738  -11.0108 F   0  0  0  0  0  0  0  0  0  0  0  0
    6.2594    6.1409  -12.8946 F   0  0  0  0  0  0  0  0  0  0  0  0
    7.9397    2.3944  -14.6505 N   0  0  0  0  0  0  0  0  0  0  0  0
    8.5568    1.7025  -15.1205 H   0  0  0  0  0  0  0  0  0  0  0  0
    7.1706    1.8775  -13.5748 C   0  0  0  0  0  0  0  0  0  0  0  0
    6.6832    0.4340  -13.7690 C   0  0  0  0  0  0  0  0  0  0  0  0
    5.4149    0.8635  -13.0599 C   0  0  0  0  0  0  0  0  0  0  0  0
    4.2575    0.3488  -13.6110 F   0  0  0  0  0  0  0  0  0  0  0  0
    5.4609    0.7423  -11.6845 F   0  0  0  0  0  0  0  0  0  0  0  0
    5.7098    2.2712  -13.5408 C   0  0  0  0  0  0  0  0  0  0  0  0
 26 27  1  0  0  0
 27 20  1  0  0  0
 20 21  2  0  0  0
 21 22  1  0  0  0
 22 23  2  0  0  0
 23 14  1  0  0  0
 14 15  1  0  0  0
 15 16  1  0  0  0
 16 17  1  0  0  0
 17  1  1  0  0  0
  1  2  1  0  0  0
  2  3  1  0  0  0
  3  4  2  0  0  0
  4  5  1  0  0  0
  5  6  1  0  0  0
  6 28  1  0  0  0
 28 29  1  0  0  0
 28 30  1  0  0  0
 28 31  1  0  0  0
  6  7  1  0  0  0
  7  8  1  0  0  0
  8 32  1  0  0  0
 32 34  1  0  0  0
 34 35  1  0  0  0
 35 36  1  0  0  0
 36 37  1  0  0  0
 36 38  1  0  0  0
 36 39  1  0  0  0
  8  9  1  0  0  0
  9 10  1  0  0  0
  9 11  1  0  0  0
 17 18  1  0  0  0
 18 19  1  0  0  0
 23 24  1  0  0  0
 24 25  2  0  0  0
 25 20  1  0  0  0
 19 14  1  0  0  0
  5  1  2  0  0  0
 39 34  1  0  0  0
 11  4  1  0  0  0
  2 12  1  0  0  0
 32 33  1  0  0  0
 10 13  1  0  0  0
M  END
> <minimizedAffinity>
-11.26477

$$$$
16_1


 39 43  0  0  0  0  0  0  0  0999 V2000
    9.6159    5.1211  -13.3379 C   0  0  0  0  0  0  0  0  0  0  0  0
   10.7957    5.2148  -14.0231 N   0  0  0  0  0  0  0  0  0  0  0  0
   10.7812    4.4027  -15.0578 N   0  0  0  0  0  0  0  0  0  0  0  0
    9.6144    3.7562  -15.0923 C   0  0  0  0  0  0  0  0  0  0  0  0
    8.8293    4.1955  -13.9916 C   0  0  0  0  0  0  0  0  0  0  0  0
    7.5070    3.7005  -13.7146 C   0  0  0  0  0  0  0  0  0  0  0  0
    7.5808    2.1942  -13.4158 C   0  0  0  0  0  0  0  0  0  0  0  0
    7.5945    1.4233  -14.7160 C   0  0  0  0  0  0  0  0  0  0  0  0
    8.9067    1.4058  -15.4218 C   0  0  0  0  0  0  0  0  0  0  0  0
    9.9093    1.0806  -14.5196 O   0  0  0  0  0  0  0  0  0  0  0  0
    9.2292    2.7310  -16.1323 C   0  0  0  0  0  0  0  0  0  0  0  0
   11.6189    5.8226  -13.8035 H   0  0  0  0  0  0  0  0  0  0  0  0
    9.6060    0.5013  -13.7957 H   0  0  0  0  0  0  0  0  0  0  0  0
    9.9045    7.1085   -9.6503 N   0  0  0  0  0  0  0  0  0  0  0  0
    9.0984    5.8883   -9.6952 C   0  0  0  0  0  0  0  0  0  0  0  0
    9.4821    5.0464  -10.8652 C   0  0  0  0  0  0  0  0  0  0  0  0
    9.3538    5.9100  -12.1344 C   0  0  0  0  0  0  0  0  0  0  0  0
   10.5334    6.9000  -11.9443 C   0  0  0  0  0  0  0  0  0  0  0  0
   10.0846    7.8763  -10.8671 C   0  0  0  0  0  0  0  0  0  0  0  0
   11.6484    8.3634   -6.1087 C   0  0  0  0  0  0  0  0  0  0  0  0
   11.8948    9.0569   -7.2740 C   0  0  0  0  0  0  0  0  0  0  0  0
   11.3099    8.6187   -8.4074 N   0  0  0  0  0  0  0  0  0  0  0  0
   10.5070    7.5447   -8.4383 C   0  0  0  0  0  0  0  0  0  0  0  0
   10.2852    6.8937   -7.3037 N   0  0  0  0  0  0  0  0  0  0  0  0
   10.8182    7.2424   -6.1074 C   0  0  0  0  0  0  0  0  0  0  0  0
   11.7818    8.1980   -3.6431 C   0  0  0  0  0  0  0  0  0  0  0  0
   12.1900    8.7136   -4.8797 O   0  0  0  0  0  0  0  0  0  0  0  0
    6.5459    4.4093  -12.8634 C   0  0  0  0  0  0  0  0  0  0  0  0
    6.4706    5.7685  -13.0909 F   0  0  0  0  0  0  0  0  0  0  0  0
    6.5198    4.0503  -11.5310 F   0  0  0  0  0  0  0  0  0  0  0  0
    5.2078    4.0270  -13.2366 F   0  0  0  0  0  0  0  0  0  0  0  0
    7.0377    0.0994  -14.6181 N   0  0  0  0  0  0  0  0  0  0  0  0
    7.1245   -0.2681  -13.6496 H   0  0  0  0  0  0  0  0  0  0  0  0
    5.7647   -0.0883  -15.2180 C   0  0  0  0  0  0  0  0  0  0  0  0
    4.5827    0.4517  -14.3993 C   0  0  0  0  0  0  0  0  0  0  0  0
    3.8050   -0.7481  -14.9012 C   0  0  0  0  0  0  0  0  0  0  0  0
    2.9998   -1.3390  -13.9469 F   0  0  0  0  0  0  0  0  0  0  0  0
    3.1596   -0.5468  -16.1059 F   0  0  0  0  0  0  0  0  0  0  0  0
    5.1376   -1.4558  -15.0541 C   0  0  0  0  0  0  0  0  0  0  0  0
 26 27  1  0  0  0
 27 20  1  0  0  0
 20 21  2  0  0  0
 21 22  1  0  0  0
 22 23  2  0  0  0
 23 14  1  0  0  0
 14 15  1  0  0  0
 15 16  1  0  0  0
 16 17  1  0  0  0
 17  1  1  0  0  0
  1  2  1  0  0  0
  2  3  1  0  0  0
  3  4  2  0  0  0
  4  5  1  0  0  0
  5  6  1  0  0  0
  6 28  1  0  0  0
 28 29  1  0  0  0
 28 30  1  0  0  0
 28 31  1  0  0  0
  6  7  1  0  0  0
  7  8  1  0  0  0
  8 32  1  0  0  0
 32 34  1  0  0  0
 34 35  1  0  0  0
 35 36  1  0  0  0
 36 37  1  0  0  0
 36 38  1  0  0  0
 36 39  1  0  0  0
  8  9  1  0  0  0
  9 10  1  0  0  0
  9 11  1  0  0  0
 17 18  1  0  0  0
 18 19  1  0  0  0
 23 24  1  0  0  0
 24 25  2  0  0  0
 25 20  1  0  0  0
 19 14  1  0  0  0
  5  1  2  0  0  0
 39 34  1  0  0  0
 11  4  1  0  0  0
  2 12  1  0  0  0
 32 33  1  0  0  0
 10 13  1  0  0  0
M  END
> <minimizedAffinity>
-10.73457

$$$$
16_1


 39 43  0  0  0  0  0  0  0  0999 V2000
   10.3036    6.0682  -12.5189 C   0  0  0  0  0  0  0  0  0  0  0  0
   11.5794    6.1173  -13.0088 N   0  0  0  0  0  0  0  0  0  0  0  0
   11.6517    5.4567  -14.1440 N   0  0  0  0  0  0  0  0  0  0  0  0
   10.4499    4.9573  -14.4387 C   0  0  0  0  0  0  0  0  0  0  0  0
    9.5465    5.3329  -13.4073 C   0  0  0  0  0  0  0  0  0  0  0  0
    8.1572    4.9589  -13.3966 C   0  0  0  0  0  0  0  0  0  0  0  0
    8.0439    3.4278  -13.3171 C   0  0  0  0  0  0  0  0  0  0  0  0
    8.1892    2.8398  -14.7021 C   0  0  0  0  0  0  0  0  0  0  0  0
    9.5882    2.7672  -15.2098 C   0  0  0  0  0  0  0  0  0  0  0  0
   10.4032    2.2133  -14.2332 O   0  0  0  0  0  0  0  0  0  0  0  0
   10.1387    4.1297  -15.6631 C   0  0  0  0  0  0  0  0  0  0  0  0
   12.4108    6.5932  -12.5873 H   0  0  0  0  0  0  0  0  0  0  0  0
    9.9384    1.5812  -13.6534 H   0  0  0  0  0  0  0  0  0  0  0  0
   10.2377    7.5866   -8.6047 N   0  0  0  0  0  0  0  0  0  0  0  0
    9.4157    6.4086   -8.8828 C   0  0  0  0  0  0  0  0  0  0  0  0
    9.9047    5.7011  -10.1015 C   0  0  0  0  0  0  0  0  0  0  0  0
    9.9308    6.7149  -11.2611 C   0  0  0  0  0  0  0  0  0  0  0  0
   11.1036    7.6346  -10.8294 C   0  0  0  0  0  0  0  0  0  0  0  0
   10.5627    8.4887   -9.6925 C   0  0  0  0  0  0  0  0  0  0  0  0
   11.6244    8.3434   -4.7754 C   0  0  0  0  0  0  0  0  0  0  0  0
   11.6968    9.3302   -5.7350 C   0  0  0  0  0  0  0  0  0  0  0  0
   11.2358    9.0472   -6.9703 N   0  0  0  0  0  0  0  0  0  0  0  0
   10.7161    7.8533   -7.2923 C   0  0  0  0  0  0  0  0  0  0  0  0
   10.6572    6.9197   -6.3515 N   0  0  0  0  0  0  0  0  0  0  0  0
   11.0893    7.0913   -5.0785 C   0  0  0  0  0  0  0  0  0  0  0  0
   12.1830    7.4863   -2.5221 C   0  0  0  0  0  0  0  0  0  0  0  0
   12.0644    8.5107   -3.4698 O   0  0  0  0  0  0  0  0  0  0  0  0
    7.1446    5.6531  -12.5943 C   0  0  0  0  0  0  0  0  0  0  0  0
    7.3380    5.5718  -11.2302 F   0  0  0  0  0  0  0  0  0  0  0  0
    5.8323    5.5059  -12.9955 F   0  0  0  0  0  0  0  0  0  0  0  0
    7.2881    7.0754  -12.7747 F   0  0  0  0  0  0  0  0  0  0  0  0
    7.5040    1.5865  -14.8812 N   0  0  0  0  0  0  0  0  0  0  0  0
    7.1207    1.2416  -13.9787 H   0  0  0  0  0  0  0  0  0  0  0  0
    6.6058    1.5174  -15.9787 C   0  0  0  0  0  0  0  0  0  0  0  0
    5.6873    0.2864  -15.9807 C   0  0  0  0  0  0  0  0  0  0  0  0
    5.8409    0.2877  -17.4882 C   0  0  0  0  0  0  0  0  0  0  0  0
    5.9872   -0.9692  -18.0422 F   0  0  0  0  0  0  0  0  0  0  0  0
    4.9185    1.0702  -18.1553 F   0  0  0  0  0  0  0  0  0  0  0  0
    7.1701    0.9872  -17.2789 C   0  0  0  0  0  0  0  0  0  0  0  0
 26 27  1  0  0  0
 27 20  1  0  0  0
 20 21  2  0  0  0
 21 22  1  0  0  0
 22 23  2  0  0  0
 23 14  1  0  0  0
 14 15  1  0  0  0
 15 16  1  0  0  0
 16 17  1  0  0  0
 17  1  1  0  0  0
  1  2  1  0  0  0
  2  3  1  0  0  0
  3  4  2  0  0  0
  4  5  1  0  0  0
  5  6  1  0  0  0
  6 28  1  0  0  0
 28 29  1  0  0  0
 28 30  1  0  0  0
 28 31  1  0  0  0
  6  7  1  0  0  0
  7  8  1  0  0  0
  8 32  1  0  0  0
 32 34  1  0  0  0
 34 35  1  0  0  0
 35 36  1  0  0  0
 36 37  1  0  0  0
 36 38  1  0  0  0
 36 39  1  0  0  0
  8  9  1  0  0  0
  9 10  1  0  0  0
  9 11  1  0  0  0
 17 18  1  0  0  0
 18 19  1  0  0  0
 23 24  1  0  0  0
 24 25  2  0  0  0
 25 20  1  0  0  0
 19 14  1  0  0  0
  5  1  2  0  0  0
 39 34  1  0  0  0
 11  4  1  0  0  0
  2 12  1  0  0  0
 32 33  1  0  0  0
 10 13  1  0  0  0
M  END
> <minimizedAffinity>
-9.87815

$$$$
16_1


 39 43  0  0  0  0  0  0  0  0999 V2000
   10.1048    5.6124  -13.2427 C   0  0  0  0  0  0  0  0  0  0  0  0
   11.3109    5.8417  -13.8451 N   0  0  0  0  0  0  0  0  0  0  0  0
   11.4316    5.0846  -14.9140 N   0  0  0  0  0  0  0  0  0  0  0  0
   10.3313    4.3427  -15.0531 C   0  0  0  0  0  0  0  0  0  0  0  0
    9.4449    4.6567  -13.9870 C   0  0  0  0  0  0  0  0  0  0  0  0
    8.1576    4.0362  -13.8188 C   0  0  0  0  0  0  0  0  0  0  0  0
    8.3470    2.5287  -13.5839 C   0  0  0  0  0  0  0  0  0  0  0  0
    8.5082    1.8285  -14.9139 C   0  0  0  0  0  0  0  0  0  0  0  0
    9.8571    1.9598  -15.5332 C   0  0  0  0  0  0  0  0  0  0  0  0
   10.8282    1.6769  -14.5834 O   0  0  0  0  0  0  0  0  0  0  0  0
   10.1028    3.3420  -16.1609 C   0  0  0  0  0  0  0  0  0  0  0  0
   12.0618    6.5063  -13.5455 H   0  0  0  0  0  0  0  0  0  0  0  0
   10.5343    1.0378  -13.9075 H   0  0  0  0  0  0  0  0  0  0  0  0
    9.9713    7.3722   -9.4326 N   0  0  0  0  0  0  0  0  0  0  0  0
    9.2237    6.1294   -9.6259 C   0  0  0  0  0  0  0  0  0  0  0  0
    9.7476    5.3772  -10.8025 C   0  0  0  0  0  0  0  0  0  0  0  0
    9.7010    6.3140  -12.0245 C   0  0  0  0  0  0  0  0  0  0  0  0
   10.8163    7.3313  -11.6656 C   0  0  0  0  0  0  0  0  0  0  0  0
   10.2306    8.2211  -10.5793 C   0  0  0  0  0  0  0  0  0  0  0  0
   11.3614    8.4798   -5.6910 C   0  0  0  0  0  0  0  0  0  0  0  0
   10.0257    8.1868   -5.8637 C   0  0  0  0  0  0  0  0  0  0  0  0
    9.6098    7.8303   -7.0959 N   0  0  0  0  0  0  0  0  0  0  0  0
   10.4414    7.7522   -8.1455 C   0  0  0  0  0  0  0  0  0  0  0  0
   11.7225    8.0390   -7.9541 N   0  0  0  0  0  0  0  0  0  0  0  0
   12.2519    8.4080   -6.7624 C   0  0  0  0  0  0  0  0  0  0  0  0
   12.3564    7.9756   -3.4819 C   0  0  0  0  0  0  0  0  0  0  0  0
   11.9117    8.8582   -4.4744 O   0  0  0  0  0  0  0  0  0  0  0  0
    7.0874    4.6159  -13.0007 C   0  0  0  0  0  0  0  0  0  0  0  0
    6.9905    5.9907  -13.0720 F   0  0  0  0  0  0  0  0  0  0  0  0
    6.9311    4.0968  -11.7314 F   0  0  0  0  0  0  0  0  0  0  0  0
    5.8107    4.2539  -13.5620 F   0  0  0  0  0  0  0  0  0  0  0  0
    8.0667    0.4584  -14.9118 N   0  0  0  0  0  0  0  0  0  0  0  0
    8.5008   -0.0695  -14.1286 H   0  0  0  0  0  0  0  0  0  0  0  0
    6.6711    0.2520  -15.0722 C   0  0  0  0  0  0  0  0  0  0  0  0
    6.0942   -0.9081  -14.2475 C   0  0  0  0  0  0  0  0  0  0  0  0
    5.1828   -1.1740  -15.4284 C   0  0  0  0  0  0  0  0  0  0  0  0
    5.0104   -2.5135  -15.7187 F   0  0  0  0  0  0  0  0  0  0  0  0
    3.9959   -0.4676  -15.4038 F   0  0  0  0  0  0  0  0  0  0  0  0
    6.2412   -0.5239  -16.2982 C   0  0  0  0  0  0  0  0  0  0  0  0
 26 27  1  0  0  0
 27 20  1  0  0  0
 20 21  2  0  0  0
 21 22  1  0  0  0
 22 23  2  0  0  0
 23 14  1  0  0  0
 14 15  1  0  0  0
 15 16  1  0  0  0
 16 17  1  0  0  0
 17  1  1  0  0  0
  1  2  1  0  0  0
  2  3  1  0  0  0
  3  4  2  0  0  0
  4  5  1  0  0  0
  5  6  1  0  0  0
  6 28  1  0  0  0
 28 29  1  0  0  0
 28 30  1  0  0  0
 28 31  1  0  0  0
  6  7  1  0  0  0
  7  8  1  0  0  0
  8 32  1  0  0  0
 32 34  1  0  0  0
 34 35  1  0  0  0
 35 36  1  0  0  0
 36 37  1  0  0  0
 36 38  1  0  0  0
 36 39  1  0  0  0
  8  9  1  0  0  0
  9 10  1  0  0  0
  9 11  1  0  0  0
 17 18  1  0  0  0
 18 19  1  0  0  0
 23 24  1  0  0  0
 24 25  2  0  0  0
 25 20  1  0  0  0
 19 14  1  0  0  0
  5  1  2  0  0  0
 39 34  1  0  0  0
 11  4  1  0  0  0
  2 12  1  0  0  0
 32 33  1  0  0  0
 10 13  1  0  0  0
M  END
> <minimizedAffinity>
-9.10155

$$$$
