23_0


 32 36  0  0  0  0  0  0  0  0999 V2000
    8.4206    3.0967  -14.7061 C   0  0  0  0  0  0  0  0  0  0  0  0
    9.2822    3.7328  -15.5739 C   0  0  0  0  0  0  0  0  0  0  0  0
   10.1072    4.7730  -15.1931 C   0  0  0  0  0  0  0  0  0  0  0  0
   10.0494    5.1838  -13.8593 C   0  0  0  0  0  0  0  0  0  0  0  0
    9.1970    4.5668  -12.9657 C   0  0  0  0  0  0  0  0  0  0  0  0
    8.3819    3.5208  -13.3941 C   0  0  0  0  0  0  0  0  0  0  0  0
    9.3852    5.2054  -11.7504 C   0  0  0  0  0  0  0  0  0  0  0  0
    8.8107    5.0166  -10.5096 C   0  0  0  0  0  0  0  0  0  0  0  0
    9.1930    5.8176   -9.4358 C   0  0  0  0  0  0  0  0  0  0  0  0
   10.1485    6.7982   -9.6246 C   0  0  0  0  0  0  0  0  0  0  0  0
   10.7343    6.9977  -10.8699 C   0  0  0  0  0  0  0  0  0  0  0  0
   10.3493    6.1980  -11.9320 C   0  0  0  0  0  0  0  0  0  0  0  0
   10.7367    6.1596  -13.2347 N   0  0  0  0  0  0  0  0  0  0  0  0
   11.7297    7.0383  -13.8258 C   0  0  0  0  0  0  0  0  0  0  0  0
   10.5456    7.6395   -8.4835 C   0  0  0  0  0  0  0  0  0  0  0  0
   10.6543    8.9842   -8.4390 N   0  0  0  0  0  0  0  0  0  0  0  0
   11.0401    9.3056   -7.2111 N   0  0  0  0  0  0  0  0  0  0  0  0
   11.1862    8.2071   -6.4532 C   0  0  0  0  0  0  0  0  0  0  0  0
   10.8793    7.1753   -7.2434 N   0  0  0  0  0  0  0  0  0  0  0  0
   11.2224   10.2745   -6.8274 H   0  0  0  0  0  0  0  0  0  0  0  0
   11.5956    8.1069   -5.0441 C   0  0  0  0  0  0  0  0  0  0  0  0
   11.4361    6.9482   -4.3306 C   0  0  0  0  0  0  0  0  0  0  0  0
   11.8220    6.8472   -2.9956 C   0  0  0  0  0  0  0  0  0  0  0  0
   12.3796    7.9562   -2.3897 C   0  0  0  0  0  0  0  0  0  0  0  0
   12.7722    7.9188   -1.1002 F   0  0  0  0  0  0  0  0  0  0  0  0
   12.5482    9.1457   -3.1070 C   0  0  0  0  0  0  0  0  0  0  0  0
   12.1527    9.2027   -4.4261 C   0  0  0  0  0  0  0  0  0  0  0  0
    6.0740    0.0487  -14.6010 C   0  0  0  0  0  0  0  0  0  0  0  0
    6.9349    1.1265  -14.1583 N   0  0  0  0  0  0  0  0  0  0  0  0
    7.5474    1.9988  -15.1003 C   0  0  0  0  0  0  0  0  0  0  0  0
    7.2863    1.7632  -16.3214 O   0  0  0  0  0  0  0  0  0  0  0  0
    7.0969    1.2504  -13.1353 H   0  0  0  0  0  0  0  0  0  0  0  0
 28 29  1  0  0  0
 29 30  1  0  0  0
 30 31  2  0  0  0
 30  1  1  0  0  0
  1  2  2  0  0  0
  2  3  1  0  0  0
  3  4  2  0  0  0
  4  5  1  0  0  0
  5  6  2  0  0  0
  5  7  1  0  0  0
  7  8  2  0  0  0
  8  9  1  0  0  0
  9 10  2  0  0  0
 10 15  1  0  0  0
 15 16  2  0  0  0
 16 17  1  0  0  0
 17 18  1  0  0  0
 18 21  1  0  0  0
 21 22  2  0  0  0
 22 23  1  0  0  0
 23 24  2  0  0  0
 24 25  1  0  0  0
 24 26  1  0  0  0
 26 27  2  0  0  0
 18 19  2  0  0  0
 10 11  1  0  0  0
 11 12  2  0  0  0
 12 13  1  0  0  0
 13 14  1  0  0  0
  6  1  1  0  0  0
 12  7  1  0  0  0
 13  4  1  0  0  0
 19 15  1  0  0  0
 27 21  1  0  0  0
 29 32  1  0  0  0
 17 20  1  0  0  0
M  END
> <minimizedAffinity>
-12.07428

$$$$
23_0


 32 36  0  0  0  0  0  0  0  0999 V2000
   12.1225    5.8810  -15.8438 C   0  0  0  0  0  0  0  0  0  0  0  0
   10.9539    5.1595  -15.9626 C   0  0  0  0  0  0  0  0  0  0  0  0
   10.0356    5.0341  -14.9386 C   0  0  0  0  0  0  0  0  0  0  0  0
   10.3253    5.6776  -13.7331 C   0  0  0  0  0  0  0  0  0  0  0  0
   11.4872    6.4078  -13.5828 C   0  0  0  0  0  0  0  0  0  0  0  0
   12.3858    6.5073  -14.6434 C   0  0  0  0  0  0  0  0  0  0  0  0
   11.4645    6.9056  -12.2898 C   0  0  0  0  0  0  0  0  0  0  0  0
   12.3534    7.6956  -11.5891 C   0  0  0  0  0  0  0  0  0  0  0  0
   12.0766    8.0561  -10.2722 C   0  0  0  0  0  0  0  0  0  0  0  0
   10.9087    7.6170   -9.6776 C   0  0  0  0  0  0  0  0  0  0  0  0
   10.0057    6.8207  -10.3736 C   0  0  0  0  0  0  0  0  0  0  0  0
   10.2877    6.4666  -11.6815 C   0  0  0  0  0  0  0  0  0  0  0  0
    9.6112    5.7164  -12.5916 N   0  0  0  0  0  0  0  0  0  0  0  0
    8.3321    5.0758  -12.3443 C   0  0  0  0  0  0  0  0  0  0  0  0
   10.6253    8.0034   -8.2855 C   0  0  0  0  0  0  0  0  0  0  0  0
    9.5604    8.6839   -7.8112 N   0  0  0  0  0  0  0  0  0  0  0  0
    9.7243    8.8036   -6.5002 N   0  0  0  0  0  0  0  0  0  0  0  0
   10.8673    8.2197   -6.1063 C   0  0  0  0  0  0  0  0  0  0  0  0
   11.4244    7.7243   -7.2141 N   0  0  0  0  0  0  0  0  0  0  0  0
    9.0779    9.2815   -5.8125 H   0  0  0  0  0  0  0  0  0  0  0  0
   11.4322    8.1192   -4.7520 C   0  0  0  0  0  0  0  0  0  0  0  0
   11.5456    6.9148   -4.1089 C   0  0  0  0  0  0  0  0  0  0  0  0
   12.0798    6.8132   -2.8260 C   0  0  0  0  0  0  0  0  0  0  0  0
   12.5023    7.9694   -2.1994 C   0  0  0  0  0  0  0  0  0  0  0  0
   13.0275    7.9339   -0.9580 F   0  0  0  0  0  0  0  0  0  0  0  0
   12.3921    9.2059   -2.8450 C   0  0  0  0  0  0  0  0  0  0  0  0
   11.8575    9.2617   -4.1142 C   0  0  0  0  0  0  0  0  0  0  0  0
   15.2932    6.7578  -17.8402 C   0  0  0  0  0  0  0  0  0  0  0  0
   14.3592    6.6464  -16.7383 N   0  0  0  0  0  0  0  0  0  0  0  0
   13.0959    6.0180  -16.9194 C   0  0  0  0  0  0  0  0  0  0  0  0
   12.8614    5.5771  -18.0879 O   0  0  0  0  0  0  0  0  0  0  0  0
   14.6311    7.0359  -15.8097 H   0  0  0  0  0  0  0  0  0  0  0  0
 28 29  1  0  0  0
 29 30  1  0  0  0
 30 31  2  0  0  0
 30  1  1  0  0  0
  1  2  2  0  0  0
  2  3  1  0  0  0
  3  4  2  0  0  0
  4  5  1  0  0  0
  5  6  2  0  0  0
  5  7  1  0  0  0
  7  8  2  0  0  0
  8  9  1  0  0  0
  9 10  2  0  0  0
 10 15  1  0  0  0
 15 16  2  0  0  0
 16 17  1  0  0  0
 17 18  1  0  0  0
 18 21  1  0  0  0
 21 22  2  0  0  0
 22 23  1  0  0  0
 23 24  2  0  0  0
 24 25  1  0  0  0
 24 26  1  0  0  0
 26 27  2  0  0  0
 18 19  2  0  0  0
 10 11  1  0  0  0
 11 12  2  0  0  0
 12 13  1  0  0  0
 13 14  1  0  0  0
  6  1  1  0  0  0
 12  7  1  0  0  0
 13  4  1  0  0  0
 19 15  1  0  0  0
 27 21  1  0  0  0
 29 32  1  0  0  0
 17 20  1  0  0  0
M  END
> <minimizedAffinity>
-11.98288

$$$$
23_0


 32 36  0  0  0  0  0  0  0  0999 V2000
    8.0873    0.7968  -16.1054 C   0  0  0  0  0  0  0  0  0  0  0  0
    6.7637    0.7170  -15.7288 C   0  0  0  0  0  0  0  0  0  0  0  0
    6.2037    1.5254  -14.7590 C   0  0  0  0  0  0  0  0  0  0  0  0
    7.0372    2.4620  -14.1432 C   0  0  0  0  0  0  0  0  0  0  0  0
    8.3672    2.5665  -14.4984 C   0  0  0  0  0  0  0  0  0  0  0  0
    8.8899    1.7297  -15.4826 C   0  0  0  0  0  0  0  0  0  0  0  0
    8.8982    3.5748  -13.7099 C   0  0  0  0  0  0  0  0  0  0  0  0
   10.1673    4.1113  -13.6284 C   0  0  0  0  0  0  0  0  0  0  0  0
   10.4318    5.1410  -12.7281 C   0  0  0  0  0  0  0  0  0  0  0  0
    9.4156    5.6175  -11.9215 C   0  0  0  0  0  0  0  0  0  0  0  0
    8.1331    5.0848  -11.9948 C   0  0  0  0  0  0  0  0  0  0  0  0
    7.8780    4.0619  -12.8916 C   0  0  0  0  0  0  0  0  0  0  0  0
    6.7502    3.3599  -13.1808 N   0  0  0  0  0  0  0  0  0  0  0  0
    5.4635    3.5667  -12.5411 C   0  0  0  0  0  0  0  0  0  0  0  0
    9.7052    6.7059  -10.9733 C   0  0  0  0  0  0  0  0  0  0  0  0
    9.5740    8.0352  -11.1672 N   0  0  0  0  0  0  0  0  0  0  0  0
    9.9489    8.6338  -10.0442 N   0  0  0  0  0  0  0  0  0  0  0  0
   10.3212    7.7310   -9.1229 C   0  0  0  0  0  0  0  0  0  0  0  0
   10.1695    6.5365   -9.7005 N   0  0  0  0  0  0  0  0  0  0  0  0
    9.9718    9.6727   -9.8461 H   0  0  0  0  0  0  0  0  0  0  0  0
   10.8024    7.9577   -7.7516 C   0  0  0  0  0  0  0  0  0  0  0  0
   10.6036    7.0345   -6.7590 C   0  0  0  0  0  0  0  0  0  0  0  0
   11.0571    7.2437   -5.4583 C   0  0  0  0  0  0  0  0  0  0  0  0
   11.7242    8.4204   -5.1788 C   0  0  0  0  0  0  0  0  0  0  0  0
   12.1861    8.6787   -3.9385 F   0  0  0  0  0  0  0  0  0  0  0  0
   11.9340    9.3716   -6.1833 C   0  0  0  0  0  0  0  0  0  0  0  0
   11.4688    9.1249   -7.4572 C   0  0  0  0  0  0  0  0  0  0  0  0
   10.6195   -0.8867  -18.4638 C   0  0  0  0  0  0  0  0  0  0  0  0
   10.0730   -0.0217  -17.4381 N   0  0  0  0  0  0  0  0  0  0  0  0
    8.6852   -0.0524  -17.1275 C   0  0  0  0  0  0  0  0  0  0  0  0
    7.9871   -0.8735  -17.8009 O   0  0  0  0  0  0  0  0  0  0  0  0
   10.7170    0.6241  -16.9319 H   0  0  0  0  0  0  0  0  0  0  0  0
 28 29  1  0  0  0
 29 30  1  0  0  0
 30 31  2  0  0  0
 30  1  1  0  0  0
  1  2  2  0  0  0
  2  3  1  0  0  0
  3  4  2  0  0  0
  4  5  1  0  0  0
  5  6  2  0  0  0
  5  7  1  0  0  0
  7  8  2  0  0  0
  8  9  1  0  0  0
  9 10  2  0  0  0
 10 15  1  0  0  0
 15 16  2  0  0  0
 16 17  1  0  0  0
 17 18  1  0  0  0
 18 21  1  0  0  0
 21 22  2  0  0  0
 22 23  1  0  0  0
 23 24  2  0  0  0
 24 25  1  0  0  0
 24 26  1  0  0  0
 26 27  2  0  0  0
 18 19  2  0  0  0
 10 11  1  0  0  0
 11 12  2  0  0  0
 12 13  1  0  0  0
 13 14  1  0  0  0
  6  1  1  0  0  0
 12  7  1  0  0  0
 13  4  1  0  0  0
 19 15  1  0  0  0
 27 21  1  0  0  0
 29 32  1  0  0  0
 17 20  1  0  0  0
M  END
> <minimizedAffinity>
-10.94616

$$$$
23_0


 32 36  0  0  0  0  0  0  0  0999 V2000
    5.8230   -0.5132  -16.1859 C   0  0  0  0  0  0  0  0  0  0  0  0
    4.8379   -0.3904  -15.2296 C   0  0  0  0  0  0  0  0  0  0  0  0
    4.8735    0.5568  -14.2250 C   0  0  0  0  0  0  0  0  0  0  0  0
    5.9700    1.4216  -14.1957 C   0  0  0  0  0  0  0  0  0  0  0  0
    6.9729    1.3241  -15.1394 C   0  0  0  0  0  0  0  0  0  0  0  0
    6.8956    0.3526  -16.1356 C   0  0  0  0  0  0  0  0  0  0  0  0
    7.8926    2.3126  -14.8274 C   0  0  0  0  0  0  0  0  0  0  0  0
    9.0843    2.6838  -15.4167 C   0  0  0  0  0  0  0  0  0  0  0  0
    9.8256    3.7369  -14.8855 C   0  0  0  0  0  0  0  0  0  0  0  0
    9.3581    4.4027  -13.7681 C   0  0  0  0  0  0  0  0  0  0  0  0
    8.1589    4.0377  -13.1660 C   0  0  0  0  0  0  0  0  0  0  0  0
    7.4279    2.9904  -13.6994 C   0  0  0  0  0  0  0  0  0  0  0  0
    6.2479    2.4210  -13.3363 N   0  0  0  0  0  0  0  0  0  0  0  0
    5.4430    2.8427  -12.2041 C   0  0  0  0  0  0  0  0  0  0  0  0
   10.1489    5.5143  -13.2144 C   0  0  0  0  0  0  0  0  0  0  0  0
   11.0271    6.3122  -13.8579 N   0  0  0  0  0  0  0  0  0  0  0  0
   11.5010    7.1726  -12.9661 N   0  0  0  0  0  0  0  0  0  0  0  0
   10.9557    6.9576  -11.7582 C   0  0  0  0  0  0  0  0  0  0  0  0
   10.1179    5.9294  -11.9140 N   0  0  0  0  0  0  0  0  0  0  0  0
   12.2099    7.9409  -13.1277 H   0  0  0  0  0  0  0  0  0  0  0  0
   11.1964    7.6751  -10.4970 C   0  0  0  0  0  0  0  0  0  0  0  0
   12.4305    7.6874   -9.9022 C   0  0  0  0  0  0  0  0  0  0  0  0
   12.6646    8.3653   -8.7076 C   0  0  0  0  0  0  0  0  0  0  0  0
   11.6116    9.0388   -8.1199 C   0  0  0  0  0  0  0  0  0  0  0  0
   11.7774    9.7125   -6.9636 F   0  0  0  0  0  0  0  0  0  0  0  0
   10.3462    9.0343   -8.7169 C   0  0  0  0  0  0  0  0  0  0  0  0
   10.1578    8.3509   -9.8990 C   0  0  0  0  0  0  0  0  0  0  0  0
    4.6788   -3.3096  -18.5689 C   0  0  0  0  0  0  0  0  0  0  0  0
    4.6596   -2.3327  -17.4993 N   0  0  0  0  0  0  0  0  0  0  0  0
    5.7925   -1.5097  -17.2486 C   0  0  0  0  0  0  0  0  0  0  0  0
    6.7896   -1.6953  -18.0142 O   0  0  0  0  0  0  0  0  0  0  0  0
    3.7990   -2.2446  -16.9166 H   0  0  0  0  0  0  0  0  0  0  0  0
 28 29  1  0  0  0
 29 30  1  0  0  0
 30 31  2  0  0  0
 30  1  1  0  0  0
  1  2  2  0  0  0
  2  3  1  0  0  0
  3  4  2  0  0  0
  4  5  1  0  0  0
  5  6  2  0  0  0
  5  7  1  0  0  0
  7  8  2  0  0  0
  8  9  1  0  0  0
  9 10  2  0  0  0
 10 15  1  0  0  0
 15 16  2  0  0  0
 16 17  1  0  0  0
 17 18  1  0  0  0
 18 21  1  0  0  0
 21 22  2  0  0  0
 22 23  1  0  0  0
 23 24  2  0  0  0
 24 25  1  0  0  0
 24 26  1  0  0  0
 26 27  2  0  0  0
 18 19  2  0  0  0
 10 11  1  0  0  0
 11 12  2  0  0  0
 12 13  1  0  0  0
 13 14  1  0  0  0
  6  1  1  0  0  0
 12  7  1  0  0  0
 13  4  1  0  0  0
 19 15  1  0  0  0
 27 21  1  0  0  0
 29 32  1  0  0  0
 17 20  1  0  0  0
M  END
> <minimizedAffinity>
-10.32656

$$$$
