21_0


 30 33  0  0  0  0  0  0  0  0999 V2000
   11.1623    6.8817  -12.1340 C   0  0  0  0  0  0  0  0  0  0  0  0
   12.1222    7.1334  -13.0903 C   0  0  0  0  0  0  0  0  0  0  0  0
   12.0643    6.5637  -14.3680 C   0  0  0  0  0  0  0  0  0  0  0  0
   11.0371    5.7467  -14.6626 N   0  0  0  0  0  0  0  0  0  0  0  0
   10.7266    5.0807  -15.7602 N   0  0  0  0  0  0  0  0  0  0  0  0
    9.5772    4.3791  -15.5777 C   0  0  0  0  0  0  0  0  0  0  0  0
    9.1875    4.6614  -14.2640 C   0  0  0  0  0  0  0  0  0  0  0  0
   10.1163    5.5199  -13.7096 C   0  0  0  0  0  0  0  0  0  0  0  0
   10.1606    6.0600  -12.4815 N   0  0  0  0  0  0  0  0  0  0  0  0
   10.1802    7.6059   -9.9155 C   0  0  0  0  0  0  0  0  0  0  0  0
   10.6281    8.8250   -9.0946 C   0  0  0  0  0  0  0  0  0  0  0  0
   12.0386    8.5492   -9.0829 O   0  0  0  0  0  0  0  0  0  0  0  0
   12.3344    8.0523  -10.3483 C   0  0  0  0  0  0  0  0  0  0  0  0
   13.5753    8.1221  -11.0017 O   0  0  0  0  0  0  0  0  0  0  0  0
   11.2779    7.4990  -10.8591 N   0  0  0  0  0  0  0  0  0  0  0  0
   13.6367    8.2255  -12.0075 H   0  0  0  0  0  0  0  0  0  0  0  0
    9.1849    5.3687   -9.3418 C   0  0  0  0  0  0  0  0  0  0  0  0
   10.1314    6.4494   -8.9441 C   0  0  0  0  0  0  0  0  0  0  0  0
    9.7821    6.8820   -7.5380 C   0  0  0  0  0  0  0  0  0  0  0  0
    7.9824    4.0936  -13.6676 C   0  0  0  0  0  0  0  0  0  0  0  0
    7.0938    4.9868  -13.0829 C   0  0  0  0  0  0  0  0  0  0  0  0
    5.9262    4.5242  -12.4959 C   0  0  0  0  0  0  0  0  0  0  0  0
    5.6256    3.1683  -12.4820 C   0  0  0  0  0  0  0  0  0  0  0  0
    6.5223    2.2954  -13.0690 C   0  0  0  0  0  0  0  0  0  0  0  0
    7.7040    2.7435  -13.6652 C   0  0  0  0  0  0  0  0  0  0  0  0
    6.1930    0.9023  -13.0435 N   0  0  0  0  0  0  0  0  0  0  0  0
    5.3148    0.1416  -14.3107 S   0  0  0  0  0  0  0  0  0  0  0  0
    5.8269    0.7258  -15.9162 C   0  0  0  0  0  0  0  0  0  0  0  0
    3.8369    0.3782  -14.1144 O   0  0  0  0  0  0  0  0  0  0  0  0
    5.6087   -1.3194  -14.2446 O   0  0  0  0  0  0  0  0  0  0  0  0
 17 18  1  0  0  0
 18 19  1  0  0  0
 18 10  1  0  0  0
 10 11  1  0  0  0
 11 12  1  0  0  0
 12 13  1  0  0  0
 13 14  1  0  0  0
 13 15  2  0  0  0
 15  1  1  0  0  0
  1  2  1  0  0  0
  2  3  2  0  0  0
  3  4  1  0  0  0
  4  5  1  0  0  0
  5  6  2  0  0  0
  6  7  1  0  0  0
  7 20  1  0  0  0
 20 21  2  0  0  0
 21 22  1  0  0  0
 22 23  2  0  0  0
 23 24  1  0  0  0
 24 26  1  0  0  0
 26 27  1  0  0  0
 27 28  1  0  0  0
 27 29  2  0  0  0
 27 30  2  0  0  0
 24 25  2  0  0  0
  7  8  2  0  0  0
  8  9  1  0  0  0
 15 10  1  0  0  0
  9  1  2  0  0  0
  8  4  1  0  0  0
 25 20  1  0  0  0
 14 16  1  0  0  0
M  CHG 1  15   1
M  CHG 1  26  -1
M  END
> <minimizedAffinity>
-10.35163

$$$$
21_0


 30 33  0  0  0  0  0  0  0  0999 V2000
   11.0207    7.3539   -9.0017 C   0  0  0  0  0  0  0  0  0  0  0  0
   12.2333    7.9178   -9.3353 C   0  0  0  0  0  0  0  0  0  0  0  0
   12.6898    7.9676  -10.6580 C   0  0  0  0  0  0  0  0  0  0  0  0
   11.9151    7.4466  -11.6265 N   0  0  0  0  0  0  0  0  0  0  0  0
   12.0810    7.3522  -12.9335 N   0  0  0  0  0  0  0  0  0  0  0  0
   11.0110    6.7370  -13.5021 C   0  0  0  0  0  0  0  0  0  0  0  0
   10.1517    6.4502  -12.4360 C   0  0  0  0  0  0  0  0  0  0  0  0
   10.7379    6.9033  -11.2706 C   0  0  0  0  0  0  0  0  0  0  0  0
   10.2892    6.8497  -10.0067 N   0  0  0  0  0  0  0  0  0  0  0  0
   11.3619    7.9844   -6.5734 C   0  0  0  0  0  0  0  0  0  0  0  0
   10.8876    7.1667   -5.3621 C   0  0  0  0  0  0  0  0  0  0  0  0
    9.5197    6.9889   -5.7658 O   0  0  0  0  0  0  0  0  0  0  0  0
    9.5584    6.7791   -7.1406 C   0  0  0  0  0  0  0  0  0  0  0  0
    8.6153    6.0702   -7.9021 O   0  0  0  0  0  0  0  0  0  0  0  0
   10.6145    7.3434   -7.6399 N   0  0  0  0  0  0  0  0  0  0  0  0
    8.8912    5.5301   -8.7135 H   0  0  0  0  0  0  0  0  0  0  0  0
   11.7129   10.4308   -7.0384 C   0  0  0  0  0  0  0  0  0  0  0  0
   10.9102    9.4033   -6.3161 C   0  0  0  0  0  0  0  0  0  0  0  0
   10.9103    9.7589   -4.8465 C   0  0  0  0  0  0  0  0  0  0  0  0
    8.8692    5.7795  -12.6251 C   0  0  0  0  0  0  0  0  0  0  0  0
    7.7277    6.5401  -12.4068 C   0  0  0  0  0  0  0  0  0  0  0  0
    6.4723    5.9741  -12.5666 C   0  0  0  0  0  0  0  0  0  0  0  0
    6.3342    4.6451  -12.9455 C   0  0  0  0  0  0  0  0  0  0  0  0
    7.4818    3.9047  -13.1581 C   0  0  0  0  0  0  0  0  0  0  0  0
    8.7553    4.4583  -13.0017 C   0  0  0  0  0  0  0  0  0  0  0  0
    7.3166    2.5370  -13.5479 N   0  0  0  0  0  0  0  0  0  0  0  0
    7.8898    1.9338  -15.0523 S   0  0  0  0  0  0  0  0  0  0  0  0
    8.8334    0.4339  -14.8494 C   0  0  0  0  0  0  0  0  0  0  0  0
    8.7254    2.9895  -15.7350 O   0  0  0  0  0  0  0  0  0  0  0  0
    6.6976    1.6102  -15.8884 O   0  0  0  0  0  0  0  0  0  0  0  0
 17 18  1  0  0  0
 18 19  1  0  0  0
 18 10  1  0  0  0
 10 11  1  0  0  0
 11 12  1  0  0  0
 12 13  1  0  0  0
 13 14  1  0  0  0
 13 15  2  0  0  0
 15  1  1  0  0  0
  1  2  1  0  0  0
  2  3  2  0  0  0
  3  4  1  0  0  0
  4  5  1  0  0  0
  5  6  2  0  0  0
  6  7  1  0  0  0
  7 20  1  0  0  0
 20 21  2  0  0  0
 21 22  1  0  0  0
 22 23  2  0  0  0
 23 24  1  0  0  0
 24 26  1  0  0  0
 26 27  1  0  0  0
 27 28  1  0  0  0
 27 29  2  0  0  0
 27 30  2  0  0  0
 24 25  2  0  0  0
  7  8  2  0  0  0
  8  9  1  0  0  0
 15 10  1  0  0  0
  9  1  2  0  0  0
  8  4  1  0  0  0
 25 20  1  0  0  0
 14 16  1  0  0  0
M  CHG 1  15   1
M  CHG 1  26  -1
M  END
> <minimizedAffinity>
-10.06278

$$$$
21_0


 30 33  0  0  0  0  0  0  0  0999 V2000
   10.4884    6.7494  -10.1220 C   0  0  0  0  0  0  0  0  0  0  0  0
   11.6086    7.3082  -10.6983 C   0  0  0  0  0  0  0  0  0  0  0  0
   11.8721    7.1970  -12.0689 C   0  0  0  0  0  0  0  0  0  0  0  0
   11.0000    6.5221  -12.8393 N   0  0  0  0  0  0  0  0  0  0  0  0
   10.9864    6.2593  -14.1337 N   0  0  0  0  0  0  0  0  0  0  0  0
    9.8838    5.5337  -14.4568 C   0  0  0  0  0  0  0  0  0  0  0  0
    9.1996    5.3608  -13.2488 C   0  0  0  0  0  0  0  0  0  0  0  0
    9.9167    5.9879  -12.2490 C   0  0  0  0  0  0  0  0  0  0  0  0
    9.6529    6.0877  -10.9366 N   0  0  0  0  0  0  0  0  0  0  0  0
   11.1096    7.7397   -7.8760 C   0  0  0  0  0  0  0  0  0  0  0  0
   10.8792    7.0739   -6.5106 C   0  0  0  0  0  0  0  0  0  0  0  0
    9.4883    6.7528   -6.6785 O   0  0  0  0  0  0  0  0  0  0  0  0
    9.3529    6.3524   -8.0039 C   0  0  0  0  0  0  0  0  0  0  0  0
    8.3762    5.4831   -8.5161 O   0  0  0  0  0  0  0  0  0  0  0  0
   10.2779    6.9066   -8.7252 N   0  0  0  0  0  0  0  0  0  0  0  0
    8.5810    4.8520   -9.2814 H   0  0  0  0  0  0  0  0  0  0  0  0
   10.8794   10.0176   -8.9166 C   0  0  0  0  0  0  0  0  0  0  0  0
   10.5801    9.1488   -7.7429 C   0  0  0  0  0  0  0  0  0  0  0  0
   11.0875    9.8486   -6.5024 C   0  0  0  0  0  0  0  0  0  0  0  0
    7.9431    4.6233  -13.1614 C   0  0  0  0  0  0  0  0  0  0  0  0
    6.9790    5.1306  -12.2997 C   0  0  0  0  0  0  0  0  0  0  0  0
    5.7592    4.4865  -12.1622 C   0  0  0  0  0  0  0  0  0  0  0  0
    5.4807    3.3299  -12.8791 C   0  0  0  0  0  0  0  0  0  0  0  0
    6.4526    2.8407  -13.7314 C   0  0  0  0  0  0  0  0  0  0  0  0
    7.6878    3.4766  -13.8826 C   0  0  0  0  0  0  0  0  0  0  0  0
    6.1448    1.6477  -14.4605 N   0  0  0  0  0  0  0  0  0  0  0  0
    6.5872    0.0851  -13.8964 S   0  0  0  0  0  0  0  0  0  0  0  0
    5.7811   -1.2077  -14.8239 C   0  0  0  0  0  0  0  0  0  0  0  0
    6.2525   -0.0364  -12.4295 O   0  0  0  0  0  0  0  0  0  0  0  0
    8.0580   -0.0630  -14.0960 O   0  0  0  0  0  0  0  0  0  0  0  0
 17 18  1  0  0  0
 18 19  1  0  0  0
 18 10  1  0  0  0
 10 11  1  0  0  0
 11 12  1  0  0  0
 12 13  1  0  0  0
 13 14  1  0  0  0
 13 15  2  0  0  0
 15  1  1  0  0  0
  1  2  1  0  0  0
  2  3  2  0  0  0
  3  4  1  0  0  0
  4  5  1  0  0  0
  5  6  2  0  0  0
  6  7  1  0  0  0
  7 20  1  0  0  0
 20 21  2  0  0  0
 21 22  1  0  0  0
 22 23  2  0  0  0
 23 24  1  0  0  0
 24 26  1  0  0  0
 26 27  1  0  0  0
 27 28  1  0  0  0
 27 29  2  0  0  0
 27 30  2  0  0  0
 24 25  2  0  0  0
  7  8  2  0  0  0
  8  9  1  0  0  0
 15 10  1  0  0  0
  9  1  2  0  0  0
  8  4  1  0  0  0
 25 20  1  0  0  0
 14 16  1  0  0  0
M  CHG 1  15   1
M  CHG 1  26  -1
M  END
> <minimizedAffinity>
-9.45312

$$$$
21_0


 30 33  0  0  0  0  0  0  0  0999 V2000
   10.6634    6.1172  -12.9114 C   0  0  0  0  0  0  0  0  0  0  0  0
   11.5259    7.1887  -12.9971 C   0  0  0  0  0  0  0  0  0  0  0  0
   12.4179    7.3398  -14.0657 C   0  0  0  0  0  0  0  0  0  0  0  0
   12.4270    6.4057  -15.0336 N   0  0  0  0  0  0  0  0  0  0  0  0
   13.1430    6.2861  -16.1371 N   0  0  0  0  0  0  0  0  0  0  0  0
   12.7912    5.1581  -16.8083 C   0  0  0  0  0  0  0  0  0  0  0  0
   11.7866    4.5738  -16.0294 C   0  0  0  0  0  0  0  0  0  0  0  0
   11.5746    5.3720  -14.9226 C   0  0  0  0  0  0  0  0  0  0  0  0
   10.7148    5.2161  -13.9036 N   0  0  0  0  0  0  0  0  0  0  0  0
   10.2228    5.9621  -10.4228 C   0  0  0  0  0  0  0  0  0  0  0  0
    9.0191    5.2657   -9.7695 C   0  0  0  0  0  0  0  0  0  0  0  0
    7.9825    5.8960  -10.5403 O   0  0  0  0  0  0  0  0  0  0  0  0
    8.4819    5.9892  -11.8355 C   0  0  0  0  0  0  0  0  0  0  0  0
    7.7265    6.0350  -13.0184 O   0  0  0  0  0  0  0  0  0  0  0  0
    9.7782    6.0292  -11.8029 N   0  0  0  0  0  0  0  0  0  0  0  0
    8.0632    5.6136  -13.8758 H   0  0  0  0  0  0  0  0  0  0  0  0
   11.6264    8.0011   -9.9792 C   0  0  0  0  0  0  0  0  0  0  0  0
   10.3149    7.3233   -9.7730 C   0  0  0  0  0  0  0  0  0  0  0  0
   10.0398    7.2808   -8.2869 C   0  0  0  0  0  0  0  0  0  0  0  0
   11.1316    3.3255  -16.4076 C   0  0  0  0  0  0  0  0  0  0  0  0
   11.9130    2.3832  -17.0639 C   0  0  0  0  0  0  0  0  0  0  0  0
   11.3627    1.1724  -17.4551 C   0  0  0  0  0  0  0  0  0  0  0  0
   10.0290    0.8814  -17.1994 C   0  0  0  0  0  0  0  0  0  0  0  0
    9.2678    1.8318  -16.5453 C   0  0  0  0  0  0  0  0  0  0  0  0
    9.8053    3.0576  -16.1438 C   0  0  0  0  0  0  0  0  0  0  0  0
    7.8956    1.5115  -16.2918 N   0  0  0  0  0  0  0  0  0  0  0  0
    7.3204    1.1057  -14.7233 S   0  0  0  0  0  0  0  0  0  0  0  0
    6.7369    2.5407  -13.8391 C   0  0  0  0  0  0  0  0  0  0  0  0
    8.4171    0.4210  -13.9441 O   0  0  0  0  0  0  0  0  0  0  0  0
    6.1649    0.1785  -14.8962 O   0  0  0  0  0  0  0  0  0  0  0  0
 17 18  1  0  0  0
 18 19  1  0  0  0
 18 10  1  0  0  0
 10 11  1  0  0  0
 11 12  1  0  0  0
 12 13  1  0  0  0
 13 14  1  0  0  0
 13 15  2  0  0  0
 15  1  1  0  0  0
  1  2  1  0  0  0
  2  3  2  0  0  0
  3  4  1  0  0  0
  4  5  1  0  0  0
  5  6  2  0  0  0
  6  7  1  0  0  0
  7 20  1  0  0  0
 20 21  2  0  0  0
 21 22  1  0  0  0
 22 23  2  0  0  0
 23 24  1  0  0  0
 24 26  1  0  0  0
 26 27  1  0  0  0
 27 28  1  0  0  0
 27 29  2  0  0  0
 27 30  2  0  0  0
 24 25  2  0  0  0
  7  8  2  0  0  0
  8  9  1  0  0  0
 15 10  1  0  0  0
  9  1  2  0  0  0
  8  4  1  0  0  0
 25 20  1  0  0  0
 14 16  1  0  0  0
M  CHG 1  15   1
M  CHG 1  26  -1
M  END
> <minimizedAffinity>
-8.19159

$$$$
