21_1


 39 43  0  0  0  0  0  0  0  0999 V2000
    8.0362    5.3172  -13.0746 C   0  0  0  0  0  0  0  0  0  0  0  0
    9.0982    5.5329  -12.0509 C   0  0  0  0  0  0  0  0  0  0  0  0
    9.2464    6.9146  -11.6734 N   0  0  0  0  0  0  0  0  0  0  0  0
    8.3980    8.0105  -12.0600 C   0  0  0  0  0  0  0  0  0  0  0  0
    7.2244    7.6595  -12.8871 C   0  0  0  0  0  0  0  0  0  0  0  0
    6.8626    6.2041  -12.6422 C   0  0  0  0  0  0  0  0  0  0  0  0
    6.5942    6.0873  -11.2203 N   0  0  0  0  0  0  0  0  0  0  0  0
    6.8847    6.9741  -10.7072 H   0  0  0  0  0  0  0  0  0  0  0  0
    5.5716    6.0166  -10.9914 H   0  0  0  0  0  0  0  0  0  0  0  0
    7.1811    5.3512  -10.7757 H   0  0  0  0  0  0  0  0  0  0  0  0
   10.3606    7.2482  -10.8219 C   0  0  0  0  0  0  0  0  0  0  0  0
   10.1643    7.2180   -9.4738 C   0  0  0  0  0  0  0  0  0  0  0  0
   11.1066    7.5181   -8.5146 C   0  0  0  0  0  0  0  0  0  0  0  0
   12.3639    7.8804   -9.0490 C   0  0  0  0  0  0  0  0  0  0  0  0
   12.5809    7.9163  -10.4045 C   0  0  0  0  0  0  0  0  0  0  0  0
   13.6828    8.2250  -11.1183 N   0  0  0  0  0  0  0  0  0  0  0  0
   13.3848    8.1067  -12.4014 N   0  0  0  0  0  0  0  0  0  0  0  0
   12.1030    7.7246  -12.5499 C   0  0  0  0  0  0  0  0  0  0  0  0
   11.5897    7.6029  -11.3004 C   0  0  0  0  0  0  0  0  0  0  0  0
   14.0875    8.2965  -13.1482 H   0  0  0  0  0  0  0  0  0  0  0  0
   10.9567    7.5084   -7.0819 C   0  0  0  0  0  0  0  0  0  0  0  0
   11.4970    6.5081   -6.4925 O   0  0  0  0  0  0  0  0  0  0  0  0
   10.3520    8.3453   -6.1459 N   0  0  0  0  0  0  0  0  0  0  0  0
   11.1062    8.6826   -5.0595 C   0  0  0  0  0  0  0  0  0  0  0  0
   11.8694    9.8136   -5.6522 C   0  0  0  0  0  0  0  0  0  0  0  0
   13.1000    9.5938   -6.1952 O   0  0  0  0  0  0  0  0  0  0  0  0
   10.6508    9.8390   -6.4845 C   0  0  0  0  0  0  0  0  0  0  0  0
    9.3799    8.5006   -6.3663 H   0  0  0  0  0  0  0  0  0  0  0  0
   13.5497    8.8177   -5.7960 H   0  0  0  0  0  0  0  0  0  0  0  0
    8.4069    3.1060  -14.0254 C   0  0  0  0  0  0  0  0  0  0  0  0
    8.0094    1.8172  -14.3293 C   0  0  0  0  0  0  0  0  0  0  0  0
    6.7661    1.3383  -13.9882 C   0  0  0  0  0  0  0  0  0  0  0  0
    6.2692   -0.2918  -14.3752 Cl  0  0  0  0  0  0  0  0  0  0  0  0
    5.9238    2.2031  -13.3248 C   0  0  0  0  0  0  0  0  0  0  0  0
    4.6839    1.7450  -12.9782 F   0  0  0  0  0  0  0  0  0  0  0  0
    6.3205    3.4876  -13.0221 C   0  0  0  0  0  0  0  0  0  0  0  0
    7.5693    3.9944  -13.3553 C   0  0  0  0  0  0  0  0  0  0  0  0
   10.7245    2.6160  -14.4379 C   0  0  0  0  0  0  0  0  0  0  0  0
    9.6794    3.5676  -14.3850 O   0  0  0  0  0  0  0  0  0  0  0  0
 38 39  1  0  0  0
 39 30  1  0  0  0
 30 31  2  0  0  0
 31 32  1  0  0  0
 32 33  1  0  0  0
 32 34  2  0  0  0
 34 35  1  0  0  0
 34 36  1  0  0  0
 36 37  2  0  0  0
 37  1  1  0  0  0
  1  2  1  0  0  0
  2  3  1  0  0  0
  3 11  1  0  0  0
 11 12  2  0  0  0
 12 13  1  0  0  0
 13 21  1  0  0  0
 21 22  2  0  0  0
 21 23  1  0  0  0
 23 24  1  0  0  0
 24 25  1  0  0  0
 25 26  1  0  0  0
 25 27  1  0  0  0
 13 14  2  0  0  0
 14 15  1  0  0  0
 15 16  2  0  0  0
 16 17  1  0  0  0
 17 18  1  0  0  0
 18 19  2  0  0  0
  3  4  1  0  0  0
  4  5  1  0  0  0
  5  6  1  0  0  0
  6  7  1  0  0  0
 37 30  1  0  0  0
  6  1  1  0  0  0
 19 11  1  0  0  0
 27 23  1  0  0  0
 19 15  1  0  0  0
 23 28  1  0  0  0
 26 29  1  0  0  0
 17 20  1  0  0  0
  7  8  1  0  0  0
  7  9  1  0  0  0
  7 10  1  0  0  0
M  CHG 1   7   1
M  CHG 1  23   1
M  END
> <minimizedAffinity>
-10.86474

$$$$
21_1


 39 43  0  0  0  0  0  0  0  0999 V2000
    8.8333    5.0894  -10.9923 C   0  0  0  0  0  0  0  0  0  0  0  0
    9.6474    4.5648  -12.1255 C   0  0  0  0  0  0  0  0  0  0  0  0
    8.8477    4.0020  -13.1824 N   0  0  0  0  0  0  0  0  0  0  0  0
    7.4143    4.0485  -13.2982 C   0  0  0  0  0  0  0  0  0  0  0  0
    6.7042    4.8020  -12.2433 C   0  0  0  0  0  0  0  0  0  0  0  0
    7.6532    5.8238  -11.6397 C   0  0  0  0  0  0  0  0  0  0  0  0
    8.0831    6.6739  -12.7351 N   0  0  0  0  0  0  0  0  0  0  0  0
    7.7778    6.2673  -13.6707 H   0  0  0  0  0  0  0  0  0  0  0  0
    7.6244    7.6188  -12.7370 H   0  0  0  0  0  0  0  0  0  0  0  0
    9.1207    6.7050  -12.8156 H   0  0  0  0  0  0  0  0  0  0  0  0
    9.5448    3.3136  -14.2398 C   0  0  0  0  0  0  0  0  0  0  0  0
    9.0346    2.1265  -14.6727 C   0  0  0  0  0  0  0  0  0  0  0  0
    9.5722    1.3293  -15.6592 C   0  0  0  0  0  0  0  0  0  0  0  0
   10.7563    1.8516  -16.2274 C   0  0  0  0  0  0  0  0  0  0  0  0
   11.2855    3.0462  -15.8047 C   0  0  0  0  0  0  0  0  0  0  0  0
   12.3836    3.7201  -16.2032 N   0  0  0  0  0  0  0  0  0  0  0  0
   12.4634    4.8302  -15.4885 N   0  0  0  0  0  0  0  0  0  0  0  0
   11.4360    4.9029  -14.6224 C   0  0  0  0  0  0  0  0  0  0  0  0
   10.6907    3.7859  -14.8135 C   0  0  0  0  0  0  0  0  0  0  0  0
   13.2379    5.5153  -15.6229 H   0  0  0  0  0  0  0  0  0  0  0  0
    9.0826    0.0680  -16.1538 C   0  0  0  0  0  0  0  0  0  0  0  0
    9.9887   -0.8083  -16.3793 O   0  0  0  0  0  0  0  0  0  0  0  0
    7.8264   -0.4544  -16.4560 N   0  0  0  0  0  0  0  0  0  0  0  0
    6.8274    0.4526  -16.6609 C   0  0  0  0  0  0  0  0  0  0  0  0
    7.0948    0.7697  -18.0895 C   0  0  0  0  0  0  0  0  0  0  0  0
    7.8707    1.8419  -18.4150 O   0  0  0  0  0  0  0  0  0  0  0  0
    7.6565   -0.5922  -18.0011 C   0  0  0  0  0  0  0  0  0  0  0  0
    7.8181   -1.4599  -16.3758 H   0  0  0  0  0  0  0  0  0  0  0  0
    7.8505    2.5392  -17.7242 H   0  0  0  0  0  0  0  0  0  0  0  0
   10.3857    6.8664  -10.3897 C   0  0  0  0  0  0  0  0  0  0  0  0
   11.0091    7.6951   -9.4754 C   0  0  0  0  0  0  0  0  0  0  0  0
   10.7317    7.6352   -8.1297 C   0  0  0  0  0  0  0  0  0  0  0  0
   11.5232    8.6852   -6.9786 Cl  0  0  0  0  0  0  0  0  0  0  0  0
    9.7980    6.7069   -7.7249 C   0  0  0  0  0  0  0  0  0  0  0  0
    9.5097    6.6324   -6.3912 F   0  0  0  0  0  0  0  0  0  0  0  0
    9.1768    5.8811   -8.6366 C   0  0  0  0  0  0  0  0  0  0  0  0
    9.4393    5.9220   -9.9993 C   0  0  0  0  0  0  0  0  0  0  0  0
   11.9963    7.3537  -12.1072 C   0  0  0  0  0  0  0  0  0  0  0  0
   10.6877    6.9490  -11.7549 O   0  0  0  0  0  0  0  0  0  0  0  0
 38 39  1  0  0  0
 39 30  1  0  0  0
 30 31  2  0  0  0
 31 32  1  0  0  0
 32 33  1  0  0  0
 32 34  2  0  0  0
 34 35  1  0  0  0
 34 36  1  0  0  0
 36 37  2  0  0  0
 37  1  1  0  0  0
  1  2  1  0  0  0
  2  3  1  0  0  0
  3 11  1  0  0  0
 11 12  2  0  0  0
 12 13  1  0  0  0
 13 21  1  0  0  0
 21 22  2  0  0  0
 21 23  1  0  0  0
 23 24  1  0  0  0
 24 25  1  0  0  0
 25 26  1  0  0  0
 25 27  1  0  0  0
 13 14  2  0  0  0
 14 15  1  0  0  0
 15 16  2  0  0  0
 16 17  1  0  0  0
 17 18  1  0  0  0
 18 19  2  0  0  0
  3  4  1  0  0  0
  4  5  1  0  0  0
  5  6  1  0  0  0
  6  7  1  0  0  0
 37 30  1  0  0  0
  6  1  1  0  0  0
 19 11  1  0  0  0
 27 23  1  0  0  0
 19 15  1  0  0  0
 23 28  1  0  0  0
 26 29  1  0  0  0
 17 20  1  0  0  0
  7  8  1  0  0  0
  7  9  1  0  0  0
  7 10  1  0  0  0
M  CHG 1   7   1
M  CHG 1  23   1
M  END
> <minimizedAffinity>
-9.17109

$$$$
21_1


 39 43  0  0  0  0  0  0  0  0999 V2000
    8.9980    5.0057  -11.0947 C   0  0  0  0  0  0  0  0  0  0  0  0
    9.8893    4.6504  -12.2357 C   0  0  0  0  0  0  0  0  0  0  0  0
    9.1921    4.0031  -13.3166 N   0  0  0  0  0  0  0  0  0  0  0  0
    7.7696    3.8287  -13.4442 C   0  0  0  0  0  0  0  0  0  0  0  0
    6.9457    4.4287  -12.3737 C   0  0  0  0  0  0  0  0  0  0  0  0
    7.7205    5.5667  -11.7306 C   0  0  0  0  0  0  0  0  0  0  0  0
    8.0171    6.5074  -12.7957 N   0  0  0  0  0  0  0  0  0  0  0  0
    7.7833    6.0877  -13.7461 H   0  0  0  0  0  0  0  0  0  0  0  0
    7.4163    7.3687  -12.7733 H   0  0  0  0  0  0  0  0  0  0  0  0
    9.0374    6.7027  -12.8656 H   0  0  0  0  0  0  0  0  0  0  0  0
    9.9931    3.4655  -14.3877 C   0  0  0  0  0  0  0  0  0  0  0  0
   10.8742    4.3009  -15.0062 C   0  0  0  0  0  0  0  0  0  0  0  0
   11.7064    3.9650  -16.0515 C   0  0  0  0  0  0  0  0  0  0  0  0
   11.5810    2.6195  -16.4659 C   0  0  0  0  0  0  0  0  0  0  0  0
   10.6990    1.7626  -15.8547 C   0  0  0  0  0  0  0  0  0  0  0  0
   10.4242    0.4621  -16.0825 N   0  0  0  0  0  0  0  0  0  0  0  0
    9.4954    0.0837  -15.2203 N   0  0  0  0  0  0  0  0  0  0  0  0
    9.1498    1.1126  -14.4246 C   0  0  0  0  0  0  0  0  0  0  0  0
    9.9007    2.1720  -14.8163 C   0  0  0  0  0  0  0  0  0  0  0  0
    9.1221   -0.8899  -15.2072 H   0  0  0  0  0  0  0  0  0  0  0  0
   12.6509    4.8025  -16.7455 C   0  0  0  0  0  0  0  0  0  0  0  0
   13.8530    4.7309  -16.3099 O   0  0  0  0  0  0  0  0  0  0  0  0
   12.5807    5.6995  -17.8098 N   0  0  0  0  0  0  0  0  0  0  0  0
   11.7835    6.7923  -17.6282 C   0  0  0  0  0  0  0  0  0  0  0  0
   12.7454    7.6589  -16.8958 C   0  0  0  0  0  0  0  0  0  0  0  0
   12.7461    7.6746  -15.5329 O   0  0  0  0  0  0  0  0  0  0  0  0
   13.6740    6.8027  -17.6591 C   0  0  0  0  0  0  0  0  0  0  0  0
   13.0646    5.3452  -18.6209 H   0  0  0  0  0  0  0  0  0  0  0  0
   11.8696    7.4405  -15.1577 H   0  0  0  0  0  0  0  0  0  0  0  0
   10.2863    6.9588  -10.4189 C   0  0  0  0  0  0  0  0  0  0  0  0
   10.7701    7.8442   -9.4738 C   0  0  0  0  0  0  0  0  0  0  0  0
   10.4663    7.7225   -8.1379 C   0  0  0  0  0  0  0  0  0  0  0  0
   11.0810    8.8448   -6.9478 Cl  0  0  0  0  0  0  0  0  0  0  0  0
    9.6520    6.6723   -7.7755 C   0  0  0  0  0  0  0  0  0  0  0  0
    9.3396    6.5349   -6.4523 F   0  0  0  0  0  0  0  0  0  0  0  0
    9.1700    5.7900   -8.7180 C   0  0  0  0  0  0  0  0  0  0  0  0
    9.4620    5.8912  -10.0714 C   0  0  0  0  0  0  0  0  0  0  0  0
   11.9663    7.3620  -12.0911 C   0  0  0  0  0  0  0  0  0  0  0  0
   10.6120    7.1065  -11.7731 O   0  0  0  0  0  0  0  0  0  0  0  0
 38 39  1  0  0  0
 39 30  1  0  0  0
 30 31  2  0  0  0
 31 32  1  0  0  0
 32 33  1  0  0  0
 32 34  2  0  0  0
 34 35  1  0  0  0
 34 36  1  0  0  0
 36 37  2  0  0  0
 37  1  1  0  0  0
  1  2  1  0  0  0
  2  3  1  0  0  0
  3 11  1  0  0  0
 11 12  2  0  0  0
 12 13  1  0  0  0
 13 21  1  0  0  0
 21 22  2  0  0  0
 21 23  1  0  0  0
 23 24  1  0  0  0
 24 25  1  0  0  0
 25 26  1  0  0  0
 25 27  1  0  0  0
 13 14  2  0  0  0
 14 15  1  0  0  0
 15 16  2  0  0  0
 16 17  1  0  0  0
 17 18  1  0  0  0
 18 19  2  0  0  0
  3  4  1  0  0  0
  4  5  1  0  0  0
  5  6  1  0  0  0
  6  7  1  0  0  0
 37 30  1  0  0  0
  6  1  1  0  0  0
 19 11  1  0  0  0
 27 23  1  0  0  0
 19 15  1  0  0  0
 23 28  1  0  0  0
 26 29  1  0  0  0
 17 20  1  0  0  0
  7  8  1  0  0  0
  7  9  1  0  0  0
  7 10  1  0  0  0
M  CHG 1   7   1
M  CHG 1  23   1
M  END
> <minimizedAffinity>
-9.08526

$$$$
21_1


 39 43  0  0  0  0  0  0  0  0999 V2000
    8.5654    4.9573  -11.3345 C   0  0  0  0  0  0  0  0  0  0  0  0
    9.1519    4.4265  -12.5980 C   0  0  0  0  0  0  0  0  0  0  0  0
    8.1676    3.8595  -13.4830 N   0  0  0  0  0  0  0  0  0  0  0  0
    6.7380    3.9068  -13.3274 C   0  0  0  0  0  0  0  0  0  0  0  0
    6.2390    4.6661  -12.1615 C   0  0  0  0  0  0  0  0  0  0  0  0
    7.2847    5.6898  -11.7520 C   0  0  0  0  0  0  0  0  0  0  0  0
    7.5011    6.5342  -12.9128 N   0  0  0  0  0  0  0  0  0  0  0  0
    7.0252    6.1235  -13.7724 H   0  0  0  0  0  0  0  0  0  0  0  0
    7.0503    7.4796  -12.8331 H   0  0  0  0  0  0  0  0  0  0  0  0
    8.5050    6.5639  -13.1872 H   0  0  0  0  0  0  0  0  0  0  0  0
    8.6534    3.1654  -14.6493 C   0  0  0  0  0  0  0  0  0  0  0  0
    9.3636    3.8799  -15.5668 C   0  0  0  0  0  0  0  0  0  0  0  0
    9.8907    3.3872  -16.7404 C   0  0  0  0  0  0  0  0  0  0  0  0
    9.6330    2.0125  -16.9442 C   0  0  0  0  0  0  0  0  0  0  0  0
    8.9197    1.2758  -16.0309 C   0  0  0  0  0  0  0  0  0  0  0  0
    8.5668   -0.0258  -16.0231 N   0  0  0  0  0  0  0  0  0  0  0  0
    7.8834   -0.2572  -14.9147 N   0  0  0  0  0  0  0  0  0  0  0  0
    7.7773    0.8702  -14.1874 C   0  0  0  0  0  0  0  0  0  0  0  0
    8.4251    1.8390  -14.8813 C   0  0  0  0  0  0  0  0  0  0  0  0
    7.5048   -1.2025  -14.6902 H   0  0  0  0  0  0  0  0  0  0  0  0
   10.6427    4.0921  -17.7468 C   0  0  0  0  0  0  0  0  0  0  0  0
   10.1086    4.0969  -18.9107 O   0  0  0  0  0  0  0  0  0  0  0  0
   11.8457    4.7953  -17.7698 N   0  0  0  0  0  0  0  0  0  0  0  0
   12.9247    4.1662  -17.2197 C   0  0  0  0  0  0  0  0  0  0  0  0
   13.3282    3.3388  -18.3882 C   0  0  0  0  0  0  0  0  0  0  0  0
   12.8821    2.0558  -18.5002 O   0  0  0  0  0  0  0  0  0  0  0  0
   12.6443    4.4567  -19.0669 C   0  0  0  0  0  0  0  0  0  0  0  0
   11.7142    5.7363  -18.1087 H   0  0  0  0  0  0  0  0  0  0  0  0
   12.6774    1.6555  -17.6274 H   0  0  0  0  0  0  0  0  0  0  0  0
   10.2070    6.7326  -11.0433 C   0  0  0  0  0  0  0  0  0  0  0  0
   10.9914    7.5647  -10.2666 C   0  0  0  0  0  0  0  0  0  0  0  0
   10.9690    7.5144   -8.8924 C   0  0  0  0  0  0  0  0  0  0  0  0
   11.9631    8.5688   -7.9158 Cl  0  0  0  0  0  0  0  0  0  0  0  0
   10.1247    6.5919   -8.3147 C   0  0  0  0  0  0  0  0  0  0  0  0
   10.0892    6.5269   -6.9502 F   0  0  0  0  0  0  0  0  0  0  0  0
    9.3429    5.7626   -9.0893 C   0  0  0  0  0  0  0  0  0  0  0  0
    9.3475    5.7940  -10.4773 C   0  0  0  0  0  0  0  0  0  0  0  0
   11.4924    7.1250  -13.0371 C   0  0  0  0  0  0  0  0  0  0  0  0
   10.2500    6.8054  -12.4414 O   0  0  0  0  0  0  0  0  0  0  0  0
 38 39  1  0  0  0
 39 30  1  0  0  0
 30 31  2  0  0  0
 31 32  1  0  0  0
 32 33  1  0  0  0
 32 34  2  0  0  0
 34 35  1  0  0  0
 34 36  1  0  0  0
 36 37  2  0  0  0
 37  1  1  0  0  0
  1  2  1  0  0  0
  2  3  1  0  0  0
  3 11  1  0  0  0
 11 12  2  0  0  0
 12 13  1  0  0  0
 13 21  1  0  0  0
 21 22  2  0  0  0
 21 23  1  0  0  0
 23 24  1  0  0  0
 24 25  1  0  0  0
 25 26  1  0  0  0
 25 27  1  0  0  0
 13 14  2  0  0  0
 14 15  1  0  0  0
 15 16  2  0  0  0
 16 17  1  0  0  0
 17 18  1  0  0  0
 18 19  2  0  0  0
  3  4  1  0  0  0
  4  5  1  0  0  0
  5  6  1  0  0  0
  6  7  1  0  0  0
 37 30  1  0  0  0
  6  1  1  0  0  0
 19 11  1  0  0  0
 27 23  1  0  0  0
 19 15  1  0  0  0
 23 28  1  0  0  0
 26 29  1  0  0  0
 17 20  1  0  0  0
  7  8  1  0  0  0
  7  9  1  0  0  0
  7 10  1  0  0  0
M  CHG 1   7   1
M  CHG 1  23   1
M  END
> <minimizedAffinity>
-8.83814

$$$$
21_1


 39 43  0  0  0  0  0  0  0  0999 V2000
    8.8448    5.4105  -11.2298 C   0  0  0  0  0  0  0  0  0  0  0  0
    9.2708    4.6445  -12.4356 C   0  0  0  0  0  0  0  0  0  0  0  0
    8.1633    4.1180  -13.1906 N   0  0  0  0  0  0  0  0  0  0  0  0
    6.7667    4.3908  -12.9780 C   0  0  0  0  0  0  0  0  0  0  0  0
    6.4524    5.3560  -11.9036 C   0  0  0  0  0  0  0  0  0  0  0  0
    7.6527    6.2615  -11.6837 C   0  0  0  0  0  0  0  0  0  0  0  0
    7.9082    6.9115  -12.9562 N   0  0  0  0  0  0  0  0  0  0  0  0
    7.3264    6.4682  -13.7301 H   0  0  0  0  0  0  0  0  0  0  0  0
    7.5975    7.9145  -12.9841 H   0  0  0  0  0  0  0  0  0  0  0  0
    8.8871    6.7608  -13.2774 H   0  0  0  0  0  0  0  0  0  0  0  0
    8.4736    3.2187  -14.2735 C   0  0  0  0  0  0  0  0  0  0  0  0
    7.4766    2.4163  -14.7416 C   0  0  0  0  0  0  0  0  0  0  0  0
    7.5944    1.4920  -15.7563 C   0  0  0  0  0  0  0  0  0  0  0  0
    8.8914    1.4250  -16.3141 C   0  0  0  0  0  0  0  0  0  0  0  0
    9.9087    2.2256  -15.8561 C   0  0  0  0  0  0  0  0  0  0  0  0
   11.1979    2.3273  -16.2389 N   0  0  0  0  0  0  0  0  0  0  0  0
   11.7749    3.2517  -15.4893 N   0  0  0  0  0  0  0  0  0  0  0  0
   10.8890    3.7643  -14.6154 C   0  0  0  0  0  0  0  0  0  0  0  0
    9.7136    3.1251  -14.8382 C   0  0  0  0  0  0  0  0  0  0  0  0
   12.7797    3.5048  -15.6058 H   0  0  0  0  0  0  0  0  0  0  0  0
    6.5819    0.6163  -16.2885 C   0  0  0  0  0  0  0  0  0  0  0  0
    5.8566    1.1318  -17.2095 O   0  0  0  0  0  0  0  0  0  0  0  0
    6.1831   -0.6965  -16.0444 N   0  0  0  0  0  0  0  0  0  0  0  0
    6.0452   -1.0531  -14.7342 C   0  0  0  0  0  0  0  0  0  0  0  0
    4.6693   -0.5385  -14.4999 C   0  0  0  0  0  0  0  0  0  0  0  0
    4.4884    0.7076  -13.9782 O   0  0  0  0  0  0  0  0  0  0  0  0
    4.6274   -0.7805  -15.9552 C   0  0  0  0  0  0  0  0  0  0  0  0
    6.1530   -1.2354  -16.8966 H   0  0  0  0  0  0  0  0  0  0  0  0
    5.2500    0.9955  -13.4296 H   0  0  0  0  0  0  0  0  0  0  0  0
    9.7281    6.2947   -9.1396 C   0  0  0  0  0  0  0  0  0  0  0  0
   10.6082    7.0708   -8.4087 C   0  0  0  0  0  0  0  0  0  0  0  0
   11.5921    7.8202   -9.0104 C   0  0  0  0  0  0  0  0  0  0  0  0
   12.7017    8.7995   -8.0812 Cl  0  0  0  0  0  0  0  0  0  0  0  0
   11.6662    7.7661  -10.3848 C   0  0  0  0  0  0  0  0  0  0  0  0
   12.6371    8.5047  -11.0005 F   0  0  0  0  0  0  0  0  0  0  0  0
   10.7885    6.9923  -11.1129 C   0  0  0  0  0  0  0  0  0  0  0  0
    9.7876    6.2274  -10.5295 C   0  0  0  0  0  0  0  0  0  0  0  0
    8.4815    5.8241   -7.1381 C   0  0  0  0  0  0  0  0  0  0  0  0
    8.7353    5.5412   -8.5005 O   0  0  0  0  0  0  0  0  0  0  0  0
 38 39  1  0  0  0
 39 30  1  0  0  0
 30 31  2  0  0  0
 31 32  1  0  0  0
 32 33  1  0  0  0
 32 34  2  0  0  0
 34 35  1  0  0  0
 34 36  1  0  0  0
 36 37  2  0  0  0
 37  1  1  0  0  0
  1  2  1  0  0  0
  2  3  1  0  0  0
  3 11  1  0  0  0
 11 12  2  0  0  0
 12 13  1  0  0  0
 13 21  1  0  0  0
 21 22  2  0  0  0
 21 23  1  0  0  0
 23 24  1  0  0  0
 24 25  1  0  0  0
 25 26  1  0  0  0
 25 27  1  0  0  0
 13 14  2  0  0  0
 14 15  1  0  0  0
 15 16  2  0  0  0
 16 17  1  0  0  0
 17 18  1  0  0  0
 18 19  2  0  0  0
  3  4  1  0  0  0
  4  5  1  0  0  0
  5  6  1  0  0  0
  6  7  1  0  0  0
 37 30  1  0  0  0
  6  1  1  0  0  0
 19 11  1  0  0  0
 27 23  1  0  0  0
 19 15  1  0  0  0
 23 28  1  0  0  0
 26 29  1  0  0  0
 17 20  1  0  0  0
  7  8  1  0  0  0
  7  9  1  0  0  0
  7 10  1  0  0  0
M  CHG 1   7   1
M  CHG 1  23   1
M  END
> <minimizedAffinity>
-8.42101

$$$$
21_1


 39 43  0  0  0  0  0  0  0  0999 V2000
    8.0937    4.6483  -12.0524 C   0  0  0  0  0  0  0  0  0  0  0  0
    8.0941    3.8000  -13.2782 C   0  0  0  0  0  0  0  0  0  0  0  0
    6.8192    3.1834  -13.5387 N   0  0  0  0  0  0  0  0  0  0  0  0
    5.5825    3.4328  -12.8470 C   0  0  0  0  0  0  0  0  0  0  0  0
    5.6270    4.4721  -11.7969 C   0  0  0  0  0  0  0  0  0  0  0  0
    6.7727    5.4259  -12.0914 C   0  0  0  0  0  0  0  0  0  0  0  0
    6.5114    5.9783  -13.4081 N   0  0  0  0  0  0  0  0  0  0  0  0
    5.7138    5.4579  -13.8844 H   0  0  0  0  0  0  0  0  0  0  0  0
    6.1565    6.9666  -13.3849 H   0  0  0  0  0  0  0  0  0  0  0  0
    7.3133    5.8299  -14.0554 H   0  0  0  0  0  0  0  0  0  0  0  0
    6.7641    2.2089  -14.5995 C   0  0  0  0  0  0  0  0  0  0  0  0
    7.6126    2.3658  -15.6542 C   0  0  0  0  0  0  0  0  0  0  0  0
    7.6895    1.5434  -16.7568 C   0  0  0  0  0  0  0  0  0  0  0  0
    6.7789    0.4629  -16.7226 C   0  0  0  0  0  0  0  0  0  0  0  0
    5.9165    0.2881  -15.6684 C   0  0  0  0  0  0  0  0  0  0  0  0
    4.9843   -0.6576  -15.4328 N   0  0  0  0  0  0  0  0  0  0  0  0
    4.4151   -0.3893  -14.2695 N   0  0  0  0  0  0  0  0  0  0  0  0
    4.9547    0.7193  -13.7301 C   0  0  0  0  0  0  0  0  0  0  0  0
    5.8989    1.1522  -14.6024 C   0  0  0  0  0  0  0  0  0  0  0  0
    3.6585   -0.9900  -13.8767 H   0  0  0  0  0  0  0  0  0  0  0  0
    8.5588    1.6609  -17.8995 C   0  0  0  0  0  0  0  0  0  0  0  0
    7.9557    1.7501  -19.0257 O   0  0  0  0  0  0  0  0  0  0  0  0
    9.9385    1.7052  -18.0911 N   0  0  0  0  0  0  0  0  0  0  0  0
   10.6862    0.8856  -17.2962 C   0  0  0  0  0  0  0  0  0  0  0  0
   10.5666   -0.3702  -18.0846 C   0  0  0  0  0  0  0  0  0  0  0  0
    9.5975   -1.2776  -17.7763 O   0  0  0  0  0  0  0  0  0  0  0  0
   10.3719    0.6385  -19.1443 C   0  0  0  0  0  0  0  0  0  0  0  0
   10.1958    2.4344  -18.7390 H   0  0  0  0  0  0  0  0  0  0  0  0
    9.3299   -1.2303  -16.8329 H   0  0  0  0  0  0  0  0  0  0  0  0
    9.4425    5.9439  -10.4926 C   0  0  0  0  0  0  0  0  0  0  0  0
   10.4740    6.8125  -10.1884 C   0  0  0  0  0  0  0  0  0  0  0  0
   11.2990    7.3326  -11.1582 C   0  0  0  0  0  0  0  0  0  0  0  0
   12.6013    8.4305  -10.7676 Cl  0  0  0  0  0  0  0  0  0  0  0  0
   11.0538    6.9494  -12.4583 C   0  0  0  0  0  0  0  0  0  0  0  0
   11.8630    7.4565  -13.4359 F   0  0  0  0  0  0  0  0  0  0  0  0
   10.0254    6.0835  -12.7611 C   0  0  0  0  0  0  0  0  0  0  0  0
    9.1795    5.5452  -11.8009 C   0  0  0  0  0  0  0  0  0  0  0  0
    8.9797    5.7044   -8.1453 C   0  0  0  0  0  0  0  0  0  0  0  0
    8.6174    5.4293   -9.4845 O   0  0  0  0  0  0  0  0  0  0  0  0
 38 39  1  0  0  0
 39 30  1  0  0  0
 30 31  2  0  0  0
 31 32  1  0  0  0
 32 33  1  0  0  0
 32 34  2  0  0  0
 34 35  1  0  0  0
 34 36  1  0  0  0
 36 37  2  0  0  0
 37  1  1  0  0  0
  1  2  1  0  0  0
  2  3  1  0  0  0
  3 11  1  0  0  0
 11 12  2  0  0  0
 12 13  1  0  0  0
 13 21  1  0  0  0
 21 22  2  0  0  0
 21 23  1  0  0  0
 23 24  1  0  0  0
 24 25  1  0  0  0
 25 26  1  0  0  0
 25 27  1  0  0  0
 13 14  2  0  0  0
 14 15  1  0  0  0
 15 16  2  0  0  0
 16 17  1  0  0  0
 17 18  1  0  0  0
 18 19  2  0  0  0
  3  4  1  0  0  0
  4  5  1  0  0  0
  5  6  1  0  0  0
  6  7  1  0  0  0
 37 30  1  0  0  0
  6  1  1  0  0  0
 19 11  1  0  0  0
 27 23  1  0  0  0
 19 15  1  0  0  0
 23 28  1  0  0  0
 26 29  1  0  0  0
 17 20  1  0  0  0
  7  8  1  0  0  0
  7  9  1  0  0  0
  7 10  1  0  0  0
M  CHG 1   7   1
M  CHG 1  23   1
M  END
> <minimizedAffinity>
-8.38820

$$$$
21_1


 39 43  0  0  0  0  0  0  0  0999 V2000
    8.2720    4.6639  -11.9658 C   0  0  0  0  0  0  0  0  0  0  0  0
    8.4496    3.6655  -13.0584 C   0  0  0  0  0  0  0  0  0  0  0  0
    7.2228    3.0078  -13.4274 N   0  0  0  0  0  0  0  0  0  0  0  0
    5.8983    3.3316  -12.9682 C   0  0  0  0  0  0  0  0  0  0  0  0
    5.7934    4.4973  -12.0655 C   0  0  0  0  0  0  0  0  0  0  0  0
    6.9796    5.4168  -12.3034 C   0  0  0  0  0  0  0  0  0  0  0  0
    6.9257    5.7933  -13.7043 N   0  0  0  0  0  0  0  0  0  0  0  0
    6.2043    5.2081  -14.2250 H   0  0  0  0  0  0  0  0  0  0  0  0
    6.5808    6.7728  -13.8619 H   0  0  0  0  0  0  0  0  0  0  0  0
    7.8147    5.5711  -14.1985 H   0  0  0  0  0  0  0  0  0  0  0  0
    7.3194    1.9049  -14.3505 C   0  0  0  0  0  0  0  0  0  0  0  0
    6.1727    1.4652  -14.9409 C   0  0  0  0  0  0  0  0  0  0  0  0
    6.0743    0.4205  -15.8336 C   0  0  0  0  0  0  0  0  0  0  0  0
    7.3113   -0.2028  -16.1150 C   0  0  0  0  0  0  0  0  0  0  0  0
    8.4773    0.2262  -15.5302 C   0  0  0  0  0  0  0  0  0  0  0  0
    9.7463   -0.2129  -15.6559 N   0  0  0  0  0  0  0  0  0  0  0  0
   10.5161    0.5359  -14.8839 N   0  0  0  0  0  0  0  0  0  0  0  0
    9.7779    1.4644  -14.2482 C   0  0  0  0  0  0  0  0  0  0  0  0
    8.4953    1.2772  -14.6478 C   0  0  0  0  0  0  0  0  0  0  0  0
   11.5451    0.3804  -14.8184 H   0  0  0  0  0  0  0  0  0  0  0  0
    4.8948   -0.0904  -16.4838 C   0  0  0  0  0  0  0  0  0  0  0  0
    4.0099   -0.5691  -15.6914 O   0  0  0  0  0  0  0  0  0  0  0  0
    4.4611   -0.1952  -17.8041 N   0  0  0  0  0  0  0  0  0  0  0  0
    5.3389   -0.7554  -18.6864 C   0  0  0  0  0  0  0  0  0  0  0  0
    5.0449   -2.1896  -18.4232 C   0  0  0  0  0  0  0  0  0  0  0  0
    5.8008   -2.8863  -17.5283 O   0  0  0  0  0  0  0  0  0  0  0  0
    3.7622   -1.5711  -18.0352 C   0  0  0  0  0  0  0  0  0  0  0  0
    3.5738    0.2661  -17.9366 H   0  0  0  0  0  0  0  0  0  0  0  0
    6.7067   -2.5181  -17.4401 H   0  0  0  0  0  0  0  0  0  0  0  0
    9.4709    6.0509  -10.3628 C   0  0  0  0  0  0  0  0  0  0  0  0
   10.4573    6.9558  -10.0176 C   0  0  0  0  0  0  0  0  0  0  0  0
   11.3412    7.4592  -10.9433 C   0  0  0  0  0  0  0  0  0  0  0  0
   12.5861    8.6031  -10.5010 Cl  0  0  0  0  0  0  0  0  0  0  0  0
   11.2029    7.0209  -12.2418 C   0  0  0  0  0  0  0  0  0  0  0  0
   12.0719    7.5105  -13.1760 F   0  0  0  0  0  0  0  0  0  0  0  0
   10.2195    6.1188  -12.5855 C   0  0  0  0  0  0  0  0  0  0  0  0
    9.3158    5.5964  -11.6702 C   0  0  0  0  0  0  0  0  0  0  0  0
    8.9258    5.7488   -8.0405 C   0  0  0  0  0  0  0  0  0  0  0  0
    8.5839    5.5545   -9.3991 O   0  0  0  0  0  0  0  0  0  0  0  0
 38 39  1  0  0  0
 39 30  1  0  0  0
 30 31  2  0  0  0
 31 32  1  0  0  0
 32 33  1  0  0  0
 32 34  2  0  0  0
 34 35  1  0  0  0
 34 36  1  0  0  0
 36 37  2  0  0  0
 37  1  1  0  0  0
  1  2  1  0  0  0
  2  3  1  0  0  0
  3 11  1  0  0  0
 11 12  2  0  0  0
 12 13  1  0  0  0
 13 21  1  0  0  0
 21 22  2  0  0  0
 21 23  1  0  0  0
 23 24  1  0  0  0
 24 25  1  0  0  0
 25 26  1  0  0  0
 25 27  1  0  0  0
 13 14  2  0  0  0
 14 15  1  0  0  0
 15 16  2  0  0  0
 16 17  1  0  0  0
 17 18  1  0  0  0
 18 19  2  0  0  0
  3  4  1  0  0  0
  4  5  1  0  0  0
  5  6  1  0  0  0
  6  7  1  0  0  0
 37 30  1  0  0  0
  6  1  1  0  0  0
 19 11  1  0  0  0
 27 23  1  0  0  0
 19 15  1  0  0  0
 23 28  1  0  0  0
 26 29  1  0  0  0
 17 20  1  0  0  0
  7  8  1  0  0  0
  7  9  1  0  0  0
  7 10  1  0  0  0
M  CHG 1   7   1
M  CHG 1  23   1
M  END
> <minimizedAffinity>
-8.08845

$$$$
21_1


 39 43  0  0  0  0  0  0  0  0999 V2000
    8.9158    5.3203  -11.2919 C   0  0  0  0  0  0  0  0  0  0  0  0
    9.3923    4.5177  -12.4542 C   0  0  0  0  0  0  0  0  0  0  0  0
    8.3177    3.9622  -13.2355 N   0  0  0  0  0  0  0  0  0  0  0  0
    6.9129    4.2355  -13.0880 C   0  0  0  0  0  0  0  0  0  0  0  0
    6.5525    5.2334  -12.0588 C   0  0  0  0  0  0  0  0  0  0  0  0
    7.7402    6.1508  -11.8204 C   0  0  0  0  0  0  0  0  0  0  0  0
    8.0446    6.7607  -13.1021 N   0  0  0  0  0  0  0  0  0  0  0  0
    7.4958    6.2900  -13.8840 H   0  0  0  0  0  0  0  0  0  0  0  0
    7.7321    7.7608  -13.1749 H   0  0  0  0  0  0  0  0  0  0  0  0
    9.0360    6.6040  -13.3787 H   0  0  0  0  0  0  0  0  0  0  0  0
    8.6741    3.0298  -14.2755 C   0  0  0  0  0  0  0  0  0  0  0  0
    9.5907    3.4277  -15.2020 C   0  0  0  0  0  0  0  0  0  0  0  0
   10.0384    2.6779  -16.2674 C   0  0  0  0  0  0  0  0  0  0  0  0
    9.4522    1.3940  -16.3429 C   0  0  0  0  0  0  0  0  0  0  0  0
    8.5271    0.9750  -15.4185 C   0  0  0  0  0  0  0  0  0  0  0  0
    7.8561   -0.1888  -15.3002 N   0  0  0  0  0  0  0  0  0  0  0  0
    7.0775   -0.1050  -14.2343 N   0  0  0  0  0  0  0  0  0  0  0  0
    7.2214    1.0959  -13.6442 C   0  0  0  0  0  0  0  0  0  0  0  0
    8.1301    1.7816  -14.3816 C   0  0  0  0  0  0  0  0  0  0  0  0
    6.4601   -0.8928  -13.9419 H   0  0  0  0  0  0  0  0  0  0  0  0
   10.9977    3.0451  -17.2774 C   0  0  0  0  0  0  0  0  0  0  0  0
   12.1937    2.6469  -17.0516 O   0  0  0  0  0  0  0  0  0  0  0  0
   10.9466    3.7473  -18.4801 N   0  0  0  0  0  0  0  0  0  0  0  0
   10.2336    4.9111  -18.4713 C   0  0  0  0  0  0  0  0  0  0  0  0
   11.2808    5.8176  -17.9285 C   0  0  0  0  0  0  0  0  0  0  0  0
   11.3366    6.0686  -16.5901 O   0  0  0  0  0  0  0  0  0  0  0  0
   12.1178    4.7758  -18.5549 C   0  0  0  0  0  0  0  0  0  0  0  0
   11.3727    3.2232  -19.2294 H   0  0  0  0  0  0  0  0  0  0  0  0
   10.4617    5.9685  -16.1559 H   0  0  0  0  0  0  0  0  0  0  0  0
    9.7449    6.2350   -9.1926 C   0  0  0  0  0  0  0  0  0  0  0  0
   10.5942    7.0359   -8.4522 C   0  0  0  0  0  0  0  0  0  0  0  0
   11.5679    7.8074   -9.0424 C   0  0  0  0  0  0  0  0  0  0  0  0
   12.6384    8.8182   -8.1010 Cl  0  0  0  0  0  0  0  0  0  0  0  0
   11.6641    7.7495  -10.4152 C   0  0  0  0  0  0  0  0  0  0  0  0
   12.6254    8.5097  -11.0196 F   0  0  0  0  0  0  0  0  0  0  0  0
   10.8172    6.9509  -11.1530 C   0  0  0  0  0  0  0  0  0  0  0  0
    9.8271    6.1635  -10.5812 C   0  0  0  0  0  0  0  0  0  0  0  0
    8.4574    5.7627   -7.2176 C   0  0  0  0  0  0  0  0  0  0  0  0
    8.7618    5.4594   -8.5651 O   0  0  0  0  0  0  0  0  0  0  0  0
 38 39  1  0  0  0
 39 30  1  0  0  0
 30 31  2  0  0  0
 31 32  1  0  0  0
 32 33  1  0  0  0
 32 34  2  0  0  0
 34 35  1  0  0  0
 34 36  1  0  0  0
 36 37  2  0  0  0
 37  1  1  0  0  0
  1  2  1  0  0  0
  2  3  1  0  0  0
  3 11  1  0  0  0
 11 12  2  0  0  0
 12 13  1  0  0  0
 13 21  1  0  0  0
 21 22  2  0  0  0
 21 23  1  0  0  0
 23 24  1  0  0  0
 24 25  1  0  0  0
 25 26  1  0  0  0
 25 27  1  0  0  0
 13 14  2  0  0  0
 14 15  1  0  0  0
 15 16  2  0  0  0
 16 17  1  0  0  0
 17 18  1  0  0  0
 18 19  2  0  0  0
  3  4  1  0  0  0
  4  5  1  0  0  0
  5  6  1  0  0  0
  6  7  1  0  0  0
 37 30  1  0  0  0
  6  1  1  0  0  0
 19 11  1  0  0  0
 27 23  1  0  0  0
 19 15  1  0  0  0
 23 28  1  0  0  0
 26 29  1  0  0  0
 17 20  1  0  0  0
  7  8  1  0  0  0
  7  9  1  0  0  0
  7 10  1  0  0  0
M  CHG 1   7   1
M  CHG 1  23   1
M  END
> <minimizedAffinity>
-7.95709

$$$$
