4_0


 30 34  0  0  0  0  0  0  0  0999 V2000
    9.7888    7.0907  -10.5250 C   0  0  0  0  0  0  0  0  0  0  0  0
    9.9683    8.4677  -10.4326 C   0  0  0  0  0  0  0  0  0  0  0  0
   10.3806    9.0909   -9.2766 C   0  0  0  0  0  0  0  0  0  0  0  0
   10.6190    8.3455   -8.1965 N   0  0  0  0  0  0  0  0  0  0  0  0
   11.0291    8.7643   -6.9711 C   0  0  0  0  0  0  0  0  0  0  0  0
   11.1306    7.6037   -6.1975 C   0  0  0  0  0  0  0  0  0  0  0  0
   10.7856    6.5589   -6.9704 N   0  0  0  0  0  0  0  0  0  0  0  0
   10.4724    7.0145   -8.1945 C   0  0  0  0  0  0  0  0  0  0  0  0
   10.0561    6.3826   -9.3613 C   0  0  0  0  0  0  0  0  0  0  0  0
    6.4545    4.3801  -12.6058 C   0  0  0  0  0  0  0  0  0  0  0  0
    7.8574    4.6958  -12.2287 C   0  0  0  0  0  0  0  0  0  0  0  0
    7.9912    6.2071  -12.0732 C   0  0  0  0  0  0  0  0  0  0  0  0
    9.3642    6.4790  -11.7275 N   0  0  0  0  0  0  0  0  0  0  0  0
   10.3864    6.0996  -12.6814 C   0  0  0  0  0  0  0  0  0  0  0  0
    9.7835    5.2616  -13.7840 C   0  0  0  0  0  0  0  0  0  0  0  0
    8.8238    4.2957  -13.2270 N   0  0  0  0  0  0  0  0  0  0  0  0
    8.8736    2.9376  -13.7074 C   0  0  0  0  0  0  0  0  0  0  0  0
    7.8059    2.1581  -14.0975 C   0  0  0  0  0  0  0  0  0  0  0  0
    8.3010    0.9262  -14.4896 C   0  0  0  0  0  0  0  0  0  0  0  0
    9.6267    0.9972  -14.3276 N   0  0  0  0  0  0  0  0  0  0  0  0
    9.9597    2.1914  -13.8640 N   0  0  0  0  0  0  0  0  0  0  0  0
   11.5480    7.6493   -4.8091 C   0  0  0  0  0  0  0  0  0  0  0  0
   11.0607    6.8126   -3.8296 C   0  0  0  0  0  0  0  0  0  0  0  0
   11.5033    6.9138   -2.5443 C   0  0  0  0  0  0  0  0  0  0  0  0
   12.4586    7.8676   -2.1971 C   0  0  0  0  0  0  0  0  0  0  0  0
   12.9298    8.0104   -0.9439 F   0  0  0  0  0  0  0  0  0  0  0  0
   12.9413    8.6974   -3.1695 C   0  0  0  0  0  0  0  0  0  0  0  0
   12.4963    8.5973   -4.4684 C   0  0  0  0  0  0  0  0  0  0  0  0
   11.2994   10.1086   -6.5606 C   0  0  0  0  0  0  0  0  0  0  0  0
   11.5222   11.1894   -6.2260 N   0  0  0  0  0  0  0  0  0  0  0  0
 10 11  1  0  0  0
 11 12  1  0  0  0
 12 13  1  0  0  0
 13  1  1  0  0  0
  1  2  1  0  0  0
  2  3  2  0  0  0
  3  4  1  0  0  0
  4  5  1  0  0  0
  5 29  1  0  0  0
 29 30  3  0  0  0
  5  6  2  0  0  0
  6 22  1  0  0  0
 22 23  2  0  0  0
 23 24  1  0  0  0
 24 25  2  0  0  0
 25 26  1  0  0  0
 25 27  1  0  0  0
 27 28  2  0  0  0
  6  7  1  0  0  0
  7  8  2  0  0  0
  8  9  1  0  0  0
 13 14  1  0  0  0
 14 15  1  0  0  0
 15 16  1  0  0  0
 16 17  1  0  0  0
 17 18  1  0  0  0
 18 19  2  0  0  0
 19 20  1  0  0  0
 20 21  1  0  0  0
 16 11  1  0  0  0
 21 17  2  0  0  0
  9  1  2  0  0  0
  8  4  1  0  0  0
 28 22  1  0  0  0
M  CHG 1  20  -1
M  END
> <minimizedAffinity>
-11.14795

$$$$
4_0


 30 34  0  0  0  0  0  0  0  0999 V2000
    8.9210    5.3499  -11.8077 C   0  0  0  0  0  0  0  0  0  0  0  0
   10.0932    6.0054  -12.1724 C   0  0  0  0  0  0  0  0  0  0  0  0
   10.8824    6.6815  -11.2698 C   0  0  0  0  0  0  0  0  0  0  0  0
   10.5101    6.7116   -9.9894 N   0  0  0  0  0  0  0  0  0  0  0  0
   11.1444    7.3187   -8.9529 C   0  0  0  0  0  0  0  0  0  0  0  0
   10.3539    7.0563   -7.8295 C   0  0  0  0  0  0  0  0  0  0  0  0
    9.3013    6.3197   -8.2263 N   0  0  0  0  0  0  0  0  0  0  0  0
    9.3980    6.1092   -9.5493 C   0  0  0  0  0  0  0  0  0  0  0  0
    8.5992    5.4254  -10.4595 C   0  0  0  0  0  0  0  0  0  0  0  0
    4.7680    3.1408  -12.6247 C   0  0  0  0  0  0  0  0  0  0  0  0
    6.2532    3.1971  -12.5932 C   0  0  0  0  0  0  0  0  0  0  0  0
    6.6891    4.6473  -12.7745 C   0  0  0  0  0  0  0  0  0  0  0  0
    8.1308    4.6630  -12.7586 N   0  0  0  0  0  0  0  0  0  0  0  0
    8.8235    3.9223  -13.7931 C   0  0  0  0  0  0  0  0  0  0  0  0
    7.8445    3.0725  -14.5685 C   0  0  0  0  0  0  0  0  0  0  0  0
    6.8787    2.4415  -13.6556 N   0  0  0  0  0  0  0  0  0  0  0  0
    6.5722    1.0470  -13.8524 C   0  0  0  0  0  0  0  0  0  0  0  0
    6.1551    0.4483  -15.0219 C   0  0  0  0  0  0  0  0  0  0  0  0
    5.9786   -0.9010  -14.7681 C   0  0  0  0  0  0  0  0  0  0  0  0
    6.2881   -1.0735  -13.4785 N   0  0  0  0  0  0  0  0  0  0  0  0
    6.6391    0.0842  -12.9416 N   0  0  0  0  0  0  0  0  0  0  0  0
   10.7142    7.5499   -6.5140 C   0  0  0  0  0  0  0  0  0  0  0  0
   11.1506    6.7482   -5.4826 C   0  0  0  0  0  0  0  0  0  0  0  0
   11.4738    7.2856   -4.2723 C   0  0  0  0  0  0  0  0  0  0  0  0
   11.3681    8.6585   -4.0559 C   0  0  0  0  0  0  0  0  0  0  0  0
   11.6738    9.2408   -2.8809 F   0  0  0  0  0  0  0  0  0  0  0  0
   10.9348    9.4530   -5.0796 C   0  0  0  0  0  0  0  0  0  0  0  0
   10.6080    8.9131   -6.3030 C   0  0  0  0  0  0  0  0  0  0  0  0
   12.3631    8.0678   -9.0021 C   0  0  0  0  0  0  0  0  0  0  0  0
   13.3483    8.6657   -9.0414 N   0  0  0  0  0  0  0  0  0  0  0  0
 10 11  1  0  0  0
 11 12  1  0  0  0
 12 13  1  0  0  0
 13  1  1  0  0  0
  1  2  1  0  0  0
  2  3  2  0  0  0
  3  4  1  0  0  0
  4  5  1  0  0  0
  5 29  1  0  0  0
 29 30  3  0  0  0
  5  6  2  0  0  0
  6 22  1  0  0  0
 22 23  2  0  0  0
 23 24  1  0  0  0
 24 25  2  0  0  0
 25 26  1  0  0  0
 25 27  1  0  0  0
 27 28  2  0  0  0
  6  7  1  0  0  0
  7  8  2  0  0  0
  8  9  1  0  0  0
 13 14  1  0  0  0
 14 15  1  0  0  0
 15 16  1  0  0  0
 16 17  1  0  0  0
 17 18  1  0  0  0
 18 19  2  0  0  0
 19 20  1  0  0  0
 20 21  1  0  0  0
 16 11  1  0  0  0
 21 17  2  0  0  0
  9  1  2  0  0  0
  8  4  1  0  0  0
 28 22  1  0  0  0
M  CHG 1  20  -1
M  END
> <minimizedAffinity>
-11.12820

$$$$
4_0


 30 34  0  0  0  0  0  0  0  0999 V2000
    9.0309    2.5950  -15.1222 C   0  0  0  0  0  0  0  0  0  0  0  0
    9.9081    3.3172  -15.9258 C   0  0  0  0  0  0  0  0  0  0  0  0
   10.5692    4.4417  -15.4865 C   0  0  0  0  0  0  0  0  0  0  0  0
   10.3621    4.8600  -14.2370 N   0  0  0  0  0  0  0  0  0  0  0  0
   10.9125    5.9369  -13.6185 C   0  0  0  0  0  0  0  0  0  0  0  0
   10.3748    5.9378  -12.3275 C   0  0  0  0  0  0  0  0  0  0  0  0
    9.5426    4.8867  -12.2244 N   0  0  0  0  0  0  0  0  0  0  0  0
    9.5356    4.2273  -13.3945 C   0  0  0  0  0  0  0  0  0  0  0  0
    8.8667    3.0908  -13.8361 C   0  0  0  0  0  0  0  0  0  0  0  0
    8.4820   -0.3927  -18.8056 C   0  0  0  0  0  0  0  0  0  0  0  0
    7.9678    0.5562  -17.7833 C   0  0  0  0  0  0  0  0  0  0  0  0
    8.9035    0.5286  -16.5793 C   0  0  0  0  0  0  0  0  0  0  0  0
    8.3661    1.4425  -15.6022 N   0  0  0  0  0  0  0  0  0  0  0  0
    7.0484    1.1610  -15.0702 C   0  0  0  0  0  0  0  0  0  0  0  0
    6.3994    0.0438  -15.8527 C   0  0  0  0  0  0  0  0  0  0  0  0
    6.6519    0.2126  -17.2922 N   0  0  0  0  0  0  0  0  0  0  0  0
    5.5484    0.0235  -18.2000 C   0  0  0  0  0  0  0  0  0  0  0  0
    4.9021   -1.1609  -18.4818 C   0  0  0  0  0  0  0  0  0  0  0  0
    3.9037   -0.8909  -19.4019 C   0  0  0  0  0  0  0  0  0  0  0  0
    3.9755    0.4226  -19.6436 N   0  0  0  0  0  0  0  0  0  0  0  0
    4.9518    0.9586  -18.9285 N   0  0  0  0  0  0  0  0  0  0  0  0
   10.7321    6.9536  -11.3557 C   0  0  0  0  0  0  0  0  0  0  0  0
   12.0256    7.3436  -11.0880 C   0  0  0  0  0  0  0  0  0  0  0  0
   12.2838    8.3087  -10.1606 C   0  0  0  0  0  0  0  0  0  0  0  0
   11.2418    8.9194   -9.4648 C   0  0  0  0  0  0  0  0  0  0  0  0
   11.4407    9.8768   -8.5393 F   0  0  0  0  0  0  0  0  0  0  0  0
    9.9589    8.5317   -9.7309 C   0  0  0  0  0  0  0  0  0  0  0  0
    9.6951    7.5575  -10.6672 C   0  0  0  0  0  0  0  0  0  0  0  0
   11.8447    6.8713  -14.1722 C   0  0  0  0  0  0  0  0  0  0  0  0
   12.5943    7.6219  -14.6243 N   0  0  0  0  0  0  0  0  0  0  0  0
 10 11  1  0  0  0
 11 12  1  0  0  0
 12 13  1  0  0  0
 13  1  1  0  0  0
  1  2  1  0  0  0
  2  3  2  0  0  0
  3  4  1  0  0  0
  4  5  1  0  0  0
  5 29  1  0  0  0
 29 30  3  0  0  0
  5  6  2  0  0  0
  6 22  1  0  0  0
 22 23  2  0  0  0
 23 24  1  0  0  0
 24 25  2  0  0  0
 25 26  1  0  0  0
 25 27  1  0  0  0
 27 28  2  0  0  0
  6  7  1  0  0  0
  7  8  2  0  0  0
  8  9  1  0  0  0
 13 14  1  0  0  0
 14 15  1  0  0  0
 15 16  1  0  0  0
 16 17  1  0  0  0
 17 18  1  0  0  0
 18 19  2  0  0  0
 19 20  1  0  0  0
 20 21  1  0  0  0
 16 11  1  0  0  0
 21 17  2  0  0  0
  9  1  2  0  0  0
  8  4  1  0  0  0
 28 22  1  0  0  0
M  CHG 1  20  -1
M  END
> <minimizedAffinity>
-9.04249

$$$$
