15_1


 37 41  0  0  0  0  0  0  0  0999 V2000
    8.0701    4.3353  -12.3822 C   0  0  0  0  0  0  0  0  0  0  0  0
    6.6381    3.9376  -12.2201 C   0  0  0  0  0  0  0  0  0  0  0  0
    5.8273    5.1671  -12.5361 C   0  0  0  0  0  0  0  0  0  0  0  0
    6.8534    6.2386  -12.9025 C   0  0  0  0  0  0  0  0  0  0  0  0
    7.9872    5.8014  -12.0015 C   0  0  0  0  0  0  0  0  0  0  0  0
    9.1876    6.5367  -12.1485 N   0  0  0  0  0  0  0  0  0  0  0  0
    9.8064    6.9132  -11.0781 C   0  0  0  0  0  0  0  0  0  0  0  0
   10.9507    7.6139  -10.9974 N   0  0  0  0  0  0  0  0  0  0  0  0
   11.3009    7.8258   -9.7235 C   0  0  0  0  0  0  0  0  0  0  0  0
   12.3184    8.4466   -9.0716 C   0  0  0  0  0  0  0  0  0  0  0  0
   12.4240    8.5075   -7.6859 C   0  0  0  0  0  0  0  0  0  0  0  0
   11.4306    7.8981   -6.9431 C   0  0  0  0  0  0  0  0  0  0  0  0
   10.4052    7.2725   -7.6216 C   0  0  0  0  0  0  0  0  0  0  0  0
   10.3384    7.2348   -8.9681 N   0  0  0  0  0  0  0  0  0  0  0  0
    9.4472    6.6906   -9.7802 N   0  0  0  0  0  0  0  0  0  0  0  0
    8.5992    6.1697   -9.4504 H   0  0  0  0  0  0  0  0  0  0  0  0
   11.4194    7.8803   -5.4856 C   0  0  0  0  0  0  0  0  0  0  0  0
   11.5218    8.9378   -4.6084 C   0  0  0  0  0  0  0  0  0  0  0  0
   11.4643    8.5080   -3.3586 O   0  0  0  0  0  0  0  0  0  0  0  0
   11.3274    7.2067   -3.3405 C   0  0  0  0  0  0  0  0  0  0  0  0
   11.2938    6.7623   -4.6494 C   0  0  0  0  0  0  0  0  0  0  0  0
    8.7852    2.7701  -14.2381 C   0  0  0  0  0  0  0  0  0  0  0  0
    8.4031    1.7294  -13.6601 O   0  0  0  0  0  0  0  0  0  0  0  0
    8.6462    4.0816  -13.6554 N   0  0  0  0  0  0  0  0  0  0  0  0
    8.9961    4.9205  -14.2110 H   0  0  0  0  0  0  0  0  0  0  0  0
    9.4326    2.7442  -15.6085 C   0  0  0  0  0  0  0  0  0  0  0  0
    9.6918    4.1771  -15.9547 C   0  0  0  0  0  0  0  0  0  0  0  0
    8.4064    2.1470  -16.5759 C   0  0  0  0  0  0  0  0  0  0  0  0
   10.6736    1.9382  -15.6029 C   0  0  0  0  0  0  0  0  0  0  0  0
   11.8118    1.4501  -17.8093 C   0  0  0  0  0  0  0  0  0  0  0  0
   12.0751    0.6074  -18.8706 C   0  0  0  0  0  0  0  0  0  0  0  0
   11.4803   -0.6144  -18.9482 C   0  0  0  0  0  0  0  0  0  0  0  0
   10.6165   -0.9882  -17.9518 C   0  0  0  0  0  0  0  0  0  0  0  0
   10.3513   -0.1333  -16.8762 C   0  0  0  0  0  0  0  0  0  0  0  0
   10.9558    1.1179  -16.7882 C   0  0  0  0  0  0  0  0  0  0  0  0
   12.9546    3.8184  -17.8629 C   0  0  0  0  0  0  0  0  0  0  0  0
   12.4341    2.7372  -17.8335 C   0  0  0  0  0  0  0  0  0  0  0  0
 36 37  3  0  0  0
 37 30  1  0  0  0
 30 31  2  0  0  0
 31 32  1  0  0  0
 32 33  2  0  0  0
 33 34  1  0  0  0
 34 35  2  0  0  0
 35 29  1  0  0  0
 29 26  1  0  0  0
 26 22  1  0  0  0
 22 23  2  0  0  0
 22 24  1  0  0  0
 24 25  1  0  0  0
 24  1  1  0  0  0
  1  2  1  0  0  0
  2  3  1  0  0  0
  3  4  1  0  0  0
  4  5  1  0  0  0
  5  6  1  0  0  0
  6  7  2  0  0  0
  7  8  1  0  0  0
  8  9  2  0  0  0
  9 10  1  0  0  0
 10 11  2  0  0  0
 11 12  1  0  0  0
 12 17  1  0  0  0
 17 18  2  0  0  0
 18 19  1  0  0  0
 19 20  1  0  0  0
 20 21  2  0  0  0
 12 13  2  0  0  0
 13 14  1  0  0  0
 14 15  1  0  0  0
 15 16  1  0  0  0
 26 27  1  0  0  0
 26 28  1  0  0  0
 35 30  1  0  0  0
  5  1  1  0  0  0
 15  7  1  0  0  0
 14  9  1  0  0  0
 21 17  1  0  0  0
M  END
> <minimizedAffinity>
-11.13498

$$$$
15_1


 37 41  0  0  0  0  0  0  0  0999 V2000
    8.2795    4.3629  -12.5511 C   0  0  0  0  0  0  0  0  0  0  0  0
    6.8593    3.9255  -12.3875 C   0  0  0  0  0  0  0  0  0  0  0  0
    6.0196    5.1615  -12.5772 C   0  0  0  0  0  0  0  0  0  0  0  0
    7.0172    6.2797  -12.8768 C   0  0  0  0  0  0  0  0  0  0  0  0
    8.1819    5.7896  -12.0450 C   0  0  0  0  0  0  0  0  0  0  0  0
    9.3652    6.5576  -12.1589 N   0  0  0  0  0  0  0  0  0  0  0  0
    9.9524    6.9371  -11.0719 C   0  0  0  0  0  0  0  0  0  0  0  0
   11.0760    7.6663  -10.9597 N   0  0  0  0  0  0  0  0  0  0  0  0
   11.3949    7.8718   -9.6766 C   0  0  0  0  0  0  0  0  0  0  0  0
   12.3825    8.5109   -8.9969 C   0  0  0  0  0  0  0  0  0  0  0  0
   12.4586    8.5576   -7.6087 C   0  0  0  0  0  0  0  0  0  0  0  0
   11.4668    7.9135   -6.8935 C   0  0  0  0  0  0  0  0  0  0  0  0
   10.4721    7.2698   -7.5999 C   0  0  0  0  0  0  0  0  0  0  0  0
   10.4333    7.2468   -8.9479 N   0  0  0  0  0  0  0  0  0  0  0  0
    9.5732    6.6895   -9.7842 N   0  0  0  0  0  0  0  0  0  0  0  0
    8.7327    6.1427   -9.4779 H   0  0  0  0  0  0  0  0  0  0  0  0
   11.4269    7.8778   -5.4368 C   0  0  0  0  0  0  0  0  0  0  0  0
   11.5015    8.9253   -4.5450 C   0  0  0  0  0  0  0  0  0  0  0  0
   11.4234    8.4797   -3.3019 O   0  0  0  0  0  0  0  0  0  0  0  0
   11.2990    7.1771   -3.3023 C   0  0  0  0  0  0  0  0  0  0  0  0
   11.2957    6.7484   -4.6168 C   0  0  0  0  0  0  0  0  0  0  0  0
    9.9887    3.4381  -14.1724 C   0  0  0  0  0  0  0  0  0  0  0  0
   10.6237    2.7933  -13.3098 O   0  0  0  0  0  0  0  0  0  0  0  0
    8.8257    4.2290  -13.8554 N   0  0  0  0  0  0  0  0  0  0  0  0
    8.3383    4.7499  -14.6466 H   0  0  0  0  0  0  0  0  0  0  0  0
   10.3888    3.4462  -15.6345 C   0  0  0  0  0  0  0  0  0  0  0  0
    9.4726    4.4294  -16.2936 C   0  0  0  0  0  0  0  0  0  0  0  0
   10.1266    2.0381  -16.1770 C   0  0  0  0  0  0  0  0  0  0  0  0
   11.8129    3.8118  -15.8015 C   0  0  0  0  0  0  0  0  0  0  0  0
   12.4548    6.0552  -16.7798 C   0  0  0  0  0  0  0  0  0  0  0  0
   12.7223    7.4019  -16.6364 C   0  0  0  0  0  0  0  0  0  0  0  0
   12.7080    7.9831  -15.4057 C   0  0  0  0  0  0  0  0  0  0  0  0
   12.4228    7.2034  -14.3151 C   0  0  0  0  0  0  0  0  0  0  0  0
   12.1510    5.8386  -14.4621 C   0  0  0  0  0  0  0  0  0  0  0  0
   12.1626    5.2359  -15.7172 C   0  0  0  0  0  0  0  0  0  0  0  0
   12.6315    5.0598  -19.2079 C   0  0  0  0  0  0  0  0  0  0  0  0
   12.5459    5.5130  -18.0997 C   0  0  0  0  0  0  0  0  0  0  0  0
 36 37  3  0  0  0
 37 30  1  0  0  0
 30 31  2  0  0  0
 31 32  1  0  0  0
 32 33  2  0  0  0
 33 34  1  0  0  0
 34 35  2  0  0  0
 35 29  1  0  0  0
 29 26  1  0  0  0
 26 22  1  0  0  0
 22 23  2  0  0  0
 22 24  1  0  0  0
 24 25  1  0  0  0
 24  1  1  0  0  0
  1  2  1  0  0  0
  2  3  1  0  0  0
  3  4  1  0  0  0
  4  5  1  0  0  0
  5  6  1  0  0  0
  6  7  2  0  0  0
  7  8  1  0  0  0
  8  9  2  0  0  0
  9 10  1  0  0  0
 10 11  2  0  0  0
 11 12  1  0  0  0
 12 17  1  0  0  0
 17 18  2  0  0  0
 18 19  1  0  0  0
 19 20  1  0  0  0
 20 21  2  0  0  0
 12 13  2  0  0  0
 13 14  1  0  0  0
 14 15  1  0  0  0
 15 16  1  0  0  0
 26 27  1  0  0  0
 26 28  1  0  0  0
 35 30  1  0  0  0
  5  1  1  0  0  0
 15  7  1  0  0  0
 14  9  1  0  0  0
 21 17  1  0  0  0
M  END
> <minimizedAffinity>
-11.00724

$$$$
15_1


 37 41  0  0  0  0  0  0  0  0999 V2000
    9.1669    6.5667  -11.4849 C   0  0  0  0  0  0  0  0  0  0  0  0
    9.7746    7.7181  -12.2198 C   0  0  0  0  0  0  0  0  0  0  0  0
    8.6506    8.6879  -12.4747 C   0  0  0  0  0  0  0  0  0  0  0  0
    7.4189    8.0486  -11.8347 C   0  0  0  0  0  0  0  0  0  0  0  0
    7.7626    6.5924  -12.0579 C   0  0  0  0  0  0  0  0  0  0  0  0
    6.8557    5.6680  -11.4869 N   0  0  0  0  0  0  0  0  0  0  0  0
    6.6171    4.5723  -12.1295 C   0  0  0  0  0  0  0  0  0  0  0  0
    5.7965    3.5717  -11.7657 N   0  0  0  0  0  0  0  0  0  0  0  0
    5.7946    2.5907  -12.6756 C   0  0  0  0  0  0  0  0  0  0  0  0
    5.1817    1.3876  -12.8261 C   0  0  0  0  0  0  0  0  0  0  0  0
    5.3820    0.5508  -13.9192 C   0  0  0  0  0  0  0  0  0  0  0  0
    6.2562    0.9803  -14.8996 C   0  0  0  0  0  0  0  0  0  0  0  0
    6.8695    2.2043  -14.7303 C   0  0  0  0  0  0  0  0  0  0  0  0
    6.6492    2.9876  -13.6547 N   0  0  0  0  0  0  0  0  0  0  0  0
    7.1388    4.1715  -13.3255 N   0  0  0  0  0  0  0  0  0  0  0  0
    7.8255    4.7025  -13.9134 H   0  0  0  0  0  0  0  0  0  0  0  0
    6.5630    0.2022  -16.0935 C   0  0  0  0  0  0  0  0  0  0  0  0
    5.9555   -0.9444  -16.5566 C   0  0  0  0  0  0  0  0  0  0  0  0
    6.5228   -1.3449  -17.6825 O   0  0  0  0  0  0  0  0  0  0  0  0
    7.4894   -0.5260  -18.0105 C   0  0  0  0  0  0  0  0  0  0  0  0
    7.5572    0.4630  -17.0466 C   0  0  0  0  0  0  0  0  0  0  0  0
   10.2186    7.3815   -9.3318 C   0  0  0  0  0  0  0  0  0  0  0  0
   11.1114    8.0546   -9.8912 O   0  0  0  0  0  0  0  0  0  0  0  0
    9.2335    6.6282  -10.0674 N   0  0  0  0  0  0  0  0  0  0  0  0
    8.5041    6.0795   -9.5182 H   0  0  0  0  0  0  0  0  0  0  0  0
   10.0937    7.2965   -7.8235 C   0  0  0  0  0  0  0  0  0  0  0  0
    9.2850    6.0651   -7.5587 C   0  0  0  0  0  0  0  0  0  0  0  0
    9.3231    8.5394   -7.3685 C   0  0  0  0  0  0  0  0  0  0  0  0
   11.4227    7.2413   -7.1751 C   0  0  0  0  0  0  0  0  0  0  0  0
   11.6076    8.8950   -5.2690 C   0  0  0  0  0  0  0  0  0  0  0  0
   11.6225    9.1834   -3.9190 C   0  0  0  0  0  0  0  0  0  0  0  0
   11.5329    8.1858   -2.9973 C   0  0  0  0  0  0  0  0  0  0  0  0
   11.4278    6.8923   -3.4383 C   0  0  0  0  0  0  0  0  0  0  0  0
   11.4120    6.6017   -4.8071 C   0  0  0  0  0  0  0  0  0  0  0  0
   11.5023    7.6158   -5.7570 C   0  0  0  0  0  0  0  0  0  0  0  0
   11.8910   10.9250   -6.9172 C   0  0  0  0  0  0  0  0  0  0  0  0
   11.7630    9.9954   -6.1687 C   0  0  0  0  0  0  0  0  0  0  0  0
 36 37  3  0  0  0
 37 30  1  0  0  0
 30 31  2  0  0  0
 31 32  1  0  0  0
 32 33  2  0  0  0
 33 34  1  0  0  0
 34 35  2  0  0  0
 35 29  1  0  0  0
 29 26  1  0  0  0
 26 22  1  0  0  0
 22 23  2  0  0  0
 22 24  1  0  0  0
 24 25  1  0  0  0
 24  1  1  0  0  0
  1  2  1  0  0  0
  2  3  1  0  0  0
  3  4  1  0  0  0
  4  5  1  0  0  0
  5  6  1  0  0  0
  6  7  2  0  0  0
  7  8  1  0  0  0
  8  9  2  0  0  0
  9 10  1  0  0  0
 10 11  2  0  0  0
 11 12  1  0  0  0
 12 17  1  0  0  0
 17 18  2  0  0  0
 18 19  1  0  0  0
 19 20  1  0  0  0
 20 21  2  0  0  0
 12 13  2  0  0  0
 13 14  1  0  0  0
 14 15  1  0  0  0
 15 16  1  0  0  0
 26 27  1  0  0  0
 26 28  1  0  0  0
 35 30  1  0  0  0
  5  1  1  0  0  0
 15  7  1  0  0  0
 14  9  1  0  0  0
 21 17  1  0  0  0
M  END
> <minimizedAffinity>
-9.69975

$$$$
