10_0


 17 18  0  0  0  0  0  0  0  0999 V2000
   11.0150    2.4784  -15.3707 C   0  0  0  0  0  0  0  0  0  0  0  0
    9.6089    2.4928  -14.8691 C   0  0  0  0  0  0  0  0  0  0  0  0
    8.7323    1.4407  -15.1333 C   0  0  0  0  0  0  0  0  0  0  0  0
    7.4313    1.4496  -14.6715 C   0  0  0  0  0  0  0  0  0  0  0  0
    6.9852    2.4960  -13.9460 N   0  0  0  0  0  0  0  0  0  0  0  0
    5.8173    2.7804  -13.3812 N   0  0  0  0  0  0  0  0  0  0  0  0
    5.8911    3.9711  -12.7597 C   0  0  0  0  0  0  0  0  0  0  0  0
    7.1716    4.4488  -12.9496 C   0  0  0  0  0  0  0  0  0  0  0  0
    7.8372    3.5005  -13.6990 C   0  0  0  0  0  0  0  0  0  0  0  0
    9.1104    3.5124  -14.1397 N   0  0  0  0  0  0  0  0  0  0  0  0
    6.5528    0.3664  -14.9519 N   0  0  0  0  0  0  0  0  0  0  0  0
    6.4433   -0.7516  -14.0340 C   0  0  0  0  0  0  0  0  0  0  0  0
    5.7619    0.3952  -16.1769 C   0  0  0  0  0  0  0  0  0  0  0  0
    7.7330    5.7392  -12.4452 C   0  0  0  0  0  0  0  0  0  0  0  0
    6.7030    6.8360  -12.4861 C   0  0  0  0  0  0  0  0  0  0  0  0
    8.3030    5.5362  -11.1239 C   0  0  0  0  0  0  0  0  0  0  0  0
    8.7434    5.3592  -10.0763 N   0  0  0  0  0  0  0  0  0  0  0  0
  1  2  1  0  0  0
  2  3  1  0  0  0
  3  4  2  0  0  0
  4 11  1  0  0  0
 11 12  1  0  0  0
 11 13  1  0  0  0
  4  5  1  0  0  0
  5  6  1  0  0  0
  6  7  2  0  0  0
  7  8  1  0  0  0
  8 14  1  0  0  0
 14 15  1  0  0  0
 14 16  1  0  0  0
 16 17  3  0  0  0
  8  9  2  0  0  0
  9 10  1  0  0  0
 10  2  2  0  0  0
  9  5  1  0  0  0
M  END
> <minimizedAffinity>
-6.05559

$$$$
10_0


 17 18  0  0  0  0  0  0  0  0999 V2000
   10.3533    3.3339  -15.6416 C   0  0  0  0  0  0  0  0  0  0  0  0
    9.1897    3.4549  -14.7139 C   0  0  0  0  0  0  0  0  0  0  0  0
    9.0219    4.5759  -13.9011 C   0  0  0  0  0  0  0  0  0  0  0  0
    7.9477    4.6922  -13.0418 C   0  0  0  0  0  0  0  0  0  0  0  0
    7.0312    3.7041  -12.9776 N   0  0  0  0  0  0  0  0  0  0  0  0
    5.9217    3.5362  -12.2673 N   0  0  0  0  0  0  0  0  0  0  0  0
    5.3567    2.3560  -12.5792 C   0  0  0  0  0  0  0  0  0  0  0  0
    6.1583    1.7621  -13.5325 C   0  0  0  0  0  0  0  0  0  0  0  0
    7.2038    2.6324  -13.7636 C   0  0  0  0  0  0  0  0  0  0  0  0
    8.2443    2.4983  -14.6091 N   0  0  0  0  0  0  0  0  0  0  0  0
    7.7946    5.8438  -12.2209 N   0  0  0  0  0  0  0  0  0  0  0  0
    6.8388    6.8777  -12.5707 C   0  0  0  0  0  0  0  0  0  0  0  0
    8.6129    5.9715  -11.0205 C   0  0  0  0  0  0  0  0  0  0  0  0
    5.9419    0.4368  -14.1893 C   0  0  0  0  0  0  0  0  0  0  0  0
    6.7642   -0.6392  -13.5321 C   0  0  0  0  0  0  0  0  0  0  0  0
    4.5203    0.1361  -14.2171 C   0  0  0  0  0  0  0  0  0  0  0  0
    3.3994   -0.1207  -14.2364 N   0  0  0  0  0  0  0  0  0  0  0  0
  1  2  1  0  0  0
  2  3  1  0  0  0
  3  4  2  0  0  0
  4 11  1  0  0  0
 11 12  1  0  0  0
 11 13  1  0  0  0
  4  5  1  0  0  0
  5  6  1  0  0  0
  6  7  2  0  0  0
  7  8  1  0  0  0
  8 14  1  0  0  0
 14 15  1  0  0  0
 14 16  1  0  0  0
 16 17  3  0  0  0
  8  9  2  0  0  0
  9 10  1  0  0  0
 10  2  2  0  0  0
  9  5  1  0  0  0
M  END
> <minimizedAffinity>
-5.91533

$$$$
10_0


 17 18  0  0  0  0  0  0  0  0999 V2000
   12.5094    7.3760  -13.9050 C   0  0  0  0  0  0  0  0  0  0  0  0
   11.4624    6.9218  -12.9423 C   0  0  0  0  0  0  0  0  0  0  0  0
   11.4172    7.4071  -11.6355 C   0  0  0  0  0  0  0  0  0  0  0  0
   10.4511    6.9900  -10.7419 C   0  0  0  0  0  0  0  0  0  0  0  0
    9.5226    6.0914  -11.1302 N   0  0  0  0  0  0  0  0  0  0  0  0
    8.4971    5.5169  -10.5121 N   0  0  0  0  0  0  0  0  0  0  0  0
    7.8700    4.6779  -11.3560 C   0  0  0  0  0  0  0  0  0  0  0  0
    8.5423    4.7361  -12.5596 C   0  0  0  0  0  0  0  0  0  0  0  0
    9.5769    5.6329  -12.3883 C   0  0  0  0  0  0  0  0  0  0  0  0
   10.5106    6.0261  -13.2766 N   0  0  0  0  0  0  0  0  0  0  0  0
   10.4222    7.4972   -9.4131 N   0  0  0  0  0  0  0  0  0  0  0  0
   10.3290    6.5951   -8.2808 C   0  0  0  0  0  0  0  0  0  0  0  0
   10.4879    8.9391   -9.2041 C   0  0  0  0  0  0  0  0  0  0  0  0
    8.2184    3.9788  -13.8071 C   0  0  0  0  0  0  0  0  0  0  0  0
    9.3264    3.0274  -14.1718 C   0  0  0  0  0  0  0  0  0  0  0  0
    6.9283    3.3267  -13.6570 C   0  0  0  0  0  0  0  0  0  0  0  0
    5.9138    2.7957  -13.5488 N   0  0  0  0  0  0  0  0  0  0  0  0
  1  2  1  0  0  0
  2  3  1  0  0  0
  3  4  2  0  0  0
  4 11  1  0  0  0
 11 12  1  0  0  0
 11 13  1  0  0  0
  4  5  1  0  0  0
  5  6  1  0  0  0
  6  7  2  0  0  0
  7  8  1  0  0  0
  8 14  1  0  0  0
 14 15  1  0  0  0
 14 16  1  0  0  0
 16 17  3  0  0  0
  8  9  2  0  0  0
  9 10  1  0  0  0
 10  2  2  0  0  0
  9  5  1  0  0  0
M  END
> <minimizedAffinity>
-5.45998

$$$$
10_0


 17 18  0  0  0  0  0  0  0  0999 V2000
   12.5848    7.4170  -14.0488 C   0  0  0  0  0  0  0  0  0  0  0  0
   11.5567    6.3542  -13.8422 C   0  0  0  0  0  0  0  0  0  0  0  0
   10.5683    6.4791  -12.8661 C   0  0  0  0  0  0  0  0  0  0  0  0
    9.6158    5.4991  -12.6714 C   0  0  0  0  0  0  0  0  0  0  0  0
    9.6308    4.3887  -13.4378 N   0  0  0  0  0  0  0  0  0  0  0  0
    8.8661    3.3038  -13.4838 N   0  0  0  0  0  0  0  0  0  0  0  0
    9.3101    2.4754  -14.4460 C   0  0  0  0  0  0  0  0  0  0  0  0
   10.4071    3.0789  -15.0262 C   0  0  0  0  0  0  0  0  0  0  0  0
   10.5855    4.2807  -14.3721 C   0  0  0  0  0  0  0  0  0  0  0  0
   11.5245    5.2246  -14.5790 N   0  0  0  0  0  0  0  0  0  0  0  0
    8.6159    5.6456  -11.6703 N   0  0  0  0  0  0  0  0  0  0  0  0
    7.2743    6.0698  -12.0236 C   0  0  0  0  0  0  0  0  0  0  0  0
    8.9582    5.3629  -10.2811 C   0  0  0  0  0  0  0  0  0  0  0  0
   11.2419    2.5414  -16.1436 C   0  0  0  0  0  0  0  0  0  0  0  0
   10.9205    1.0970  -16.4195 C   0  0  0  0  0  0  0  0  0  0  0  0
   11.0967    3.3948  -17.3109 C   0  0  0  0  0  0  0  0  0  0  0  0
   10.9633    4.0738  -18.2296 N   0  0  0  0  0  0  0  0  0  0  0  0
  1  2  1  0  0  0
  2  3  1  0  0  0
  3  4  2  0  0  0
  4 11  1  0  0  0
 11 12  1  0  0  0
 11 13  1  0  0  0
  4  5  1  0  0  0
  5  6  1  0  0  0
  6  7  2  0  0  0
  7  8  1  0  0  0
  8 14  1  0  0  0
 14 15  1  0  0  0
 14 16  1  0  0  0
 16 17  3  0  0  0
  8  9  2  0  0  0
  9 10  1  0  0  0
 10  2  2  0  0  0
  9  5  1  0  0  0
M  END
> <minimizedAffinity>
-4.98931

$$$$
10_0


 17 18  0  0  0  0  0  0  0  0999 V2000
   11.9134    5.1510  -15.3090 C   0  0  0  0  0  0  0  0  0  0  0  0
   10.6003    4.6597  -14.7957 C   0  0  0  0  0  0  0  0  0  0  0  0
   10.0149    5.2079  -13.6547 C   0  0  0  0  0  0  0  0  0  0  0  0
    8.8010    4.7568  -13.1764 C   0  0  0  0  0  0  0  0  0  0  0  0
    8.1555    3.7619  -13.8197 N   0  0  0  0  0  0  0  0  0  0  0  0
    7.0050    3.1343  -13.6042 N   0  0  0  0  0  0  0  0  0  0  0  0
    6.8121    2.2006  -14.5530 C   0  0  0  0  0  0  0  0  0  0  0  0
    7.9000    2.2527  -15.4003 C   0  0  0  0  0  0  0  0  0  0  0  0
    8.7285    3.2436  -14.9147 C   0  0  0  0  0  0  0  0  0  0  0  0
    9.9120    3.6685  -15.3987 N   0  0  0  0  0  0  0  0  0  0  0  0
    8.2206    5.3295  -12.0107 N   0  0  0  0  0  0  0  0  0  0  0  0
    6.9422    6.0116  -12.0817 C   0  0  0  0  0  0  0  0  0  0  0  0
    8.9294    5.2212  -10.7407 C   0  0  0  0  0  0  0  0  0  0  0  0
    8.1394    1.4050  -16.6081 C   0  0  0  0  0  0  0  0  0  0  0  0
    8.5673    2.2399  -17.7852 C   0  0  0  0  0  0  0  0  0  0  0  0
    9.0828    0.3494  -16.2800 C   0  0  0  0  0  0  0  0  0  0  0  0
    9.8215   -0.4972  -16.0342 N   0  0  0  0  0  0  0  0  0  0  0  0
  1  2  1  0  0  0
  2  3  1  0  0  0
  3  4  2  0  0  0
  4 11  1  0  0  0
 11 12  1  0  0  0
 11 13  1  0  0  0
  4  5  1  0  0  0
  5  6  1  0  0  0
  6  7  2  0  0  0
  7  8  1  0  0  0
  8 14  1  0  0  0
 14 15  1  0  0  0
 14 16  1  0  0  0
 16 17  3  0  0  0
  8  9  2  0  0  0
  9 10  1  0  0  0
 10  2  2  0  0  0
  9  5  1  0  0  0
M  END
> <minimizedAffinity>
-4.72650

$$$$
10_0


 17 18  0  0  0  0  0  0  0  0999 V2000
   13.0996    8.3137  -11.8995 C   0  0  0  0  0  0  0  0  0  0  0  0
   11.9989    7.6757  -11.1181 C   0  0  0  0  0  0  0  0  0  0  0  0
   11.8088    7.9594   -9.7658 C   0  0  0  0  0  0  0  0  0  0  0  0
   10.7926    7.3719   -9.0392 C   0  0  0  0  0  0  0  0  0  0  0  0
    9.9564    6.5004   -9.6406 N   0  0  0  0  0  0  0  0  0  0  0  0
    8.9149    5.7955   -9.2137 N   0  0  0  0  0  0  0  0  0  0  0  0
    8.4156    5.0639  -10.2261 C   0  0  0  0  0  0  0  0  0  0  0  0
    9.1884    5.3298  -11.3380 C   0  0  0  0  0  0  0  0  0  0  0  0
   10.1496    6.2363  -10.9403 C   0  0  0  0  0  0  0  0  0  0  0  0
   11.1346    6.7981  -11.6681 N   0  0  0  0  0  0  0  0  0  0  0  0
   10.6155    7.6746   -7.6606 N   0  0  0  0  0  0  0  0  0  0  0  0
   11.2625    6.8722   -6.6397 C   0  0  0  0  0  0  0  0  0  0  0  0
    9.7732    8.8049   -7.2865 C   0  0  0  0  0  0  0  0  0  0  0  0
    9.0220    4.7521  -12.7067 C   0  0  0  0  0  0  0  0  0  0  0  0
    8.2934    5.7045  -13.6165 C   0  0  0  0  0  0  0  0  0  0  0  0
   10.3184    4.3448  -13.2218 C   0  0  0  0  0  0  0  0  0  0  0  0
   11.3372    4.0047  -13.6332 N   0  0  0  0  0  0  0  0  0  0  0  0
  1  2  1  0  0  0
  2  3  1  0  0  0
  3  4  2  0  0  0
  4 11  1  0  0  0
 11 12  1  0  0  0
 11 13  1  0  0  0
  4  5  1  0  0  0
  5  6  1  0  0  0
  6  7  2  0  0  0
  7  8  1  0  0  0
  8 14  1  0  0  0
 14 15  1  0  0  0
 14 16  1  0  0  0
 16 17  3  0  0  0
  8  9  2  0  0  0
  9 10  1  0  0  0
 10  2  2  0  0  0
  9  5  1  0  0  0
M  END
> <minimizedAffinity>
-4.68021

$$$$
