25_0


 27 28  0  0  0  0  0  0  0  0999 V2000
   10.8825    8.0897  -10.3677 C   0  0  0  0  0  0  0  0  0  0  0  0
   10.2882    7.6239  -11.3668 N   0  0  0  0  0  0  0  0  0  0  0  0
   12.6763    7.8521  -10.2827 S   0  0  0  0  0  0  0  0  0  0  0  0
   12.8901    6.6326   -9.6169 H   0  0  0  0  0  0  0  0  0  0  0  0
    8.9591    7.6212  -11.7592 C   0  0  0  0  0  0  0  0  0  0  0  0
    8.2621    8.7460  -12.1811 C   0  0  0  0  0  0  0  0  0  0  0  0
    6.9425    8.6880  -12.5790 C   0  0  0  0  0  0  0  0  0  0  0  0
    6.3093    7.4480  -12.5475 C   0  0  0  0  0  0  0  0  0  0  0  0
    6.9560    6.3197  -12.1402 C   0  0  0  0  0  0  0  0  0  0  0  0
    8.2745    6.4024  -11.7469 C   0  0  0  0  0  0  0  0  0  0  0  0
    8.9573    5.1924  -11.3100 C   0  0  0  0  0  0  0  0  0  0  0  0
    9.7251    4.6096  -12.1308 O   0  0  0  0  0  0  0  0  0  0  0  0
    8.8096    4.6591  -10.0620 O   0  0  0  0  0  0  0  0  0  0  0  0
    9.2062    5.2974   -8.8486 C   0  0  0  0  0  0  0  0  0  0  0  0
   10.3016    8.7942   -9.2851 N   0  0  0  0  0  0  0  0  0  0  0  0
    9.4411    9.3882   -9.4812 H   0  0  0  0  0  0  0  0  0  0  0  0
   12.3551    9.9051   -7.2197 H   0  0  0  0  0  0  0  0  0  0  0  0
   12.1678    9.1449   -7.8321 O   0  0  0  0  0  0  0  0  0  0  0  0
   10.8398    8.7177   -7.9776 C   0  0  0  0  0  0  0  0  0  0  0  0
   10.1647    8.2744   -6.9241 C   0  0  0  0  0  0  0  0  0  0  0  0
   10.8116    8.2143   -5.6278 C   0  0  0  0  0  0  0  0  0  0  0  0
   11.1769    6.9964   -5.0409 C   0  0  0  0  0  0  0  0  0  0  0  0
   11.8040    7.0022   -3.8055 C   0  0  0  0  0  0  0  0  0  0  0  0
   12.0862    8.1563   -3.1232 C   0  0  0  0  0  0  0  0  0  0  0  0
   12.7092    8.1331   -1.9022 F   0  0  0  0  0  0  0  0  0  0  0  0
   11.7298    9.3535   -3.6929 C   0  0  0  0  0  0  0  0  0  0  0  0
   11.0957    9.3733   -4.9399 C   0  0  0  0  0  0  0  0  0  0  0  0
 17 18  1  0  0  0
 18 19  1  0  0  0
 19 20  2  0  0  0
 20 21  1  0  0  0
 21 22  2  0  0  0
 22 23  1  0  0  0
 23 24  2  0  0  0
 24 25  1  0  0  0
 24 26  1  0  0  0
 26 27  2  0  0  0
 19 15  1  0  0  0
 15 16  1  0  0  0
 15  1  1  0  0  0
  1  2  2  0  0  0
  2  5  1  0  0  0
  5  6  2  0  0  0
  6  7  1  0  0  0
  7  8  2  0  0  0
  8  9  1  0  0  0
  9 10  2  0  0  0
 10 11  1  0  0  0
 11 12  2  0  0  0
 11 13  1  0  0  0
 13 14  1  0  0  0
  1  3  1  0  0  0
  3  4  1  0  0  0
 27 21  1  0  0  0
 10  5  1  0  0  0
M  END
> <minimizedAffinity>
-9.25974

$$$$
25_0


 27 28  0  0  0  0  0  0  0  0999 V2000
    8.7175    6.0302  -11.6893 C   0  0  0  0  0  0  0  0  0  0  0  0
    7.9296    5.6573  -12.5885 N   0  0  0  0  0  0  0  0  0  0  0  0
    9.5037    7.6494  -11.8928 S   0  0  0  0  0  0  0  0  0  0  0  0
   10.6989    7.4308  -12.6000 H   0  0  0  0  0  0  0  0  0  0  0  0
    7.1652    4.5142  -12.7605 C   0  0  0  0  0  0  0  0  0  0  0  0
    5.8972    4.3289  -12.2249 C   0  0  0  0  0  0  0  0  0  0  0  0
    5.1683    3.1776  -12.4399 C   0  0  0  0  0  0  0  0  0  0  0  0
    5.7449    2.1816  -13.2241 C   0  0  0  0  0  0  0  0  0  0  0  0
    6.9863    2.3225  -13.7684 C   0  0  0  0  0  0  0  0  0  0  0  0
    7.6960    3.4818  -13.5394 C   0  0  0  0  0  0  0  0  0  0  0  0
    9.0232    3.6230  -14.1222 C   0  0  0  0  0  0  0  0  0  0  0  0
    9.1163    4.1137  -15.2856 O   0  0  0  0  0  0  0  0  0  0  0  0
   10.1674    3.2532  -13.4758 O   0  0  0  0  0  0  0  0  0  0  0  0
   11.4782    3.7078  -13.8109 C   0  0  0  0  0  0  0  0  0  0  0  0
    9.0634    5.3198  -10.5139 N   0  0  0  0  0  0  0  0  0  0  0  0
    9.1030    4.2581  -10.5666 H   0  0  0  0  0  0  0  0  0  0  0  0
    8.7064    5.4206   -7.4189 H   0  0  0  0  0  0  0  0  0  0  0  0
    8.4094    5.8344   -8.2725 O   0  0  0  0  0  0  0  0  0  0  0  0
    9.3507    5.9908   -9.3005 C   0  0  0  0  0  0  0  0  0  0  0  0
   10.4328    6.7340   -9.1039 C   0  0  0  0  0  0  0  0  0  0  0  0
   10.6274    7.3994   -7.8304 C   0  0  0  0  0  0  0  0  0  0  0  0
   10.2840    8.7437   -7.6400 C   0  0  0  0  0  0  0  0  0  0  0  0
   10.4812    9.3225   -6.3968 C   0  0  0  0  0  0  0  0  0  0  0  0
   11.0025    8.6340   -5.3332 C   0  0  0  0  0  0  0  0  0  0  0  0
   11.1857    9.2313   -4.1129 F   0  0  0  0  0  0  0  0  0  0  0  0
   11.3419    7.3160   -5.5136 C   0  0  0  0  0  0  0  0  0  0  0  0
   11.1519    6.7093   -6.7600 C   0  0  0  0  0  0  0  0  0  0  0  0
 17 18  1  0  0  0
 18 19  1  0  0  0
 19 20  2  0  0  0
 20 21  1  0  0  0
 21 22  2  0  0  0
 22 23  1  0  0  0
 23 24  2  0  0  0
 24 25  1  0  0  0
 24 26  1  0  0  0
 26 27  2  0  0  0
 19 15  1  0  0  0
 15 16  1  0  0  0
 15  1  1  0  0  0
  1  2  2  0  0  0
  2  5  1  0  0  0
  5  6  2  0  0  0
  6  7  1  0  0  0
  7  8  2  0  0  0
  8  9  1  0  0  0
  9 10  2  0  0  0
 10 11  1  0  0  0
 11 12  2  0  0  0
 11 13  1  0  0  0
 13 14  1  0  0  0
  1  3  1  0  0  0
  3  4  1  0  0  0
 27 21  1  0  0  0
 10  5  1  0  0  0
M  END
> <minimizedAffinity>
-9.05397

$$$$
25_0


 27 28  0  0  0  0  0  0  0  0999 V2000
    9.9527    6.2992  -10.7720 C   0  0  0  0  0  0  0  0  0  0  0  0
   10.1823    5.7510  -11.8743 N   0  0  0  0  0  0  0  0  0  0  0  0
    8.9174    5.3933   -9.5934 S   0  0  0  0  0  0  0  0  0  0  0  0
    7.5879    5.7686   -9.8537 H   0  0  0  0  0  0  0  0  0  0  0  0
   10.9159    6.1347  -12.9857 C   0  0  0  0  0  0  0  0  0  0  0  0
   11.7808    7.2208  -13.0196 C   0  0  0  0  0  0  0  0  0  0  0  0
   12.5031    7.5518  -14.1474 C   0  0  0  0  0  0  0  0  0  0  0  0
   12.3423    6.7547  -15.2779 C   0  0  0  0  0  0  0  0  0  0  0  0
   11.5039    5.6803  -15.2877 C   0  0  0  0  0  0  0  0  0  0  0  0
   10.7924    5.3692  -14.1489 C   0  0  0  0  0  0  0  0  0  0  0  0
    9.8963    4.2213  -14.1688 C   0  0  0  0  0  0  0  0  0  0  0  0
    8.6945    4.4070  -14.5212 O   0  0  0  0  0  0  0  0  0  0  0  0
   10.2892    2.9593  -13.8272 O   0  0  0  0  0  0  0  0  0  0  0  0
   10.5389    1.9026  -14.7536 C   0  0  0  0  0  0  0  0  0  0  0  0
   10.4216    7.5628  -10.3370 N   0  0  0  0  0  0  0  0  0  0  0  0
   10.6684    8.2851  -11.0780 H   0  0  0  0  0  0  0  0  0  0  0  0
    9.0164    8.2880   -7.6506 H   0  0  0  0  0  0  0  0  0  0  0  0
    9.5504    8.6623   -8.4008 O   0  0  0  0  0  0  0  0  0  0  0  0
   10.5611    7.8676   -8.9612 C   0  0  0  0  0  0  0  0  0  0  0  0
   11.5714    7.4484   -8.2090 C   0  0  0  0  0  0  0  0  0  0  0  0
   11.6364    7.8322   -6.8123 C   0  0  0  0  0  0  0  0  0  0  0  0
   11.1872    6.9843   -5.7922 C   0  0  0  0  0  0  0  0  0  0  0  0
   11.2863    7.4003   -4.4744 C   0  0  0  0  0  0  0  0  0  0  0  0
   11.8084    8.6158   -4.1183 C   0  0  0  0  0  0  0  0  0  0  0  0
   11.8959    9.0017   -2.8057 F   0  0  0  0  0  0  0  0  0  0  0  0
   12.2498    9.4520   -5.1138 C   0  0  0  0  0  0  0  0  0  0  0  0
   12.1603    9.0540   -6.4521 C   0  0  0  0  0  0  0  0  0  0  0  0
 17 18  1  0  0  0
 18 19  1  0  0  0
 19 20  2  0  0  0
 20 21  1  0  0  0
 21 22  2  0  0  0
 22 23  1  0  0  0
 23 24  2  0  0  0
 24 25  1  0  0  0
 24 26  1  0  0  0
 26 27  2  0  0  0
 19 15  1  0  0  0
 15 16  1  0  0  0
 15  1  1  0  0  0
  1  2  2  0  0  0
  2  5  1  0  0  0
  5  6  2  0  0  0
  6  7  1  0  0  0
  7  8  2  0  0  0
  8  9  1  0  0  0
  9 10  2  0  0  0
 10 11  1  0  0  0
 11 12  2  0  0  0
 11 13  1  0  0  0
 13 14  1  0  0  0
  1  3  1  0  0  0
  3  4  1  0  0  0
 27 21  1  0  0  0
 10  5  1  0  0  0
M  END
> <minimizedAffinity>
-8.33212

$$$$
25_0


 27 28  0  0  0  0  0  0  0  0999 V2000
    8.9624    5.1705   -9.3559 C   0  0  0  0  0  0  0  0  0  0  0  0
    8.9339    5.4147  -10.5838 N   0  0  0  0  0  0  0  0  0  0  0  0
    9.8757    3.6998   -8.8225 S   0  0  0  0  0  0  0  0  0  0  0  0
    8.9608    2.6325   -8.8309 H   0  0  0  0  0  0  0  0  0  0  0  0
    8.3535    6.4260  -11.3327 C   0  0  0  0  0  0  0  0  0  0  0  0
    7.0864    6.3574  -11.8974 C   0  0  0  0  0  0  0  0  0  0  0  0
    6.5455    7.4000  -12.6209 C   0  0  0  0  0  0  0  0  0  0  0  0
    7.3156    8.5498  -12.7769 C   0  0  0  0  0  0  0  0  0  0  0  0
    8.5634    8.6587  -12.2398 C   0  0  0  0  0  0  0  0  0  0  0  0
    9.0830    7.6036  -11.5210 C   0  0  0  0  0  0  0  0  0  0  0  0
   10.4185    7.7269  -10.9531 C   0  0  0  0  0  0  0  0  0  0  0  0
   10.5693    8.4628   -9.9340 O   0  0  0  0  0  0  0  0  0  0  0  0
   11.5112    7.0887  -11.4653 O   0  0  0  0  0  0  0  0  0  0  0  0
   11.8075    6.9647  -12.8560 C   0  0  0  0  0  0  0  0  0  0  0  0
    8.3561    5.9280   -8.3242 N   0  0  0  0  0  0  0  0  0  0  0  0
    7.2939    5.9297   -8.2653 H   0  0  0  0  0  0  0  0  0  0  0  0
    8.4112    7.5978   -5.6925 H   0  0  0  0  0  0  0  0  0  0  0  0
    8.4497    7.6647   -6.6836 O   0  0  0  0  0  0  0  0  0  0  0  0
    9.1290    6.6636   -7.3934 C   0  0  0  0  0  0  0  0  0  0  0  0
   10.4212    6.4532   -7.1739 C   0  0  0  0  0  0  0  0  0  0  0  0
   11.1314    7.2751   -6.2135 C   0  0  0  0  0  0  0  0  0  0  0  0
   11.7284    8.4881   -6.5787 C   0  0  0  0  0  0  0  0  0  0  0  0
   12.3830    9.2371   -5.6143 C   0  0  0  0  0  0  0  0  0  0  0  0
   12.4753    8.8421   -4.3057 C   0  0  0  0  0  0  0  0  0  0  0  0
   13.1282    9.6037   -3.3713 F   0  0  0  0  0  0  0  0  0  0  0  0
   11.8928    7.6534   -3.9415 C   0  0  0  0  0  0  0  0  0  0  0  0
   11.2259    6.8796   -4.8975 C   0  0  0  0  0  0  0  0  0  0  0  0
 17 18  1  0  0  0
 18 19  1  0  0  0
 19 20  2  0  0  0
 20 21  1  0  0  0
 21 22  2  0  0  0
 22 23  1  0  0  0
 23 24  2  0  0  0
 24 25  1  0  0  0
 24 26  1  0  0  0
 26 27  2  0  0  0
 19 15  1  0  0  0
 15 16  1  0  0  0
 15  1  1  0  0  0
  1  2  2  0  0  0
  2  5  1  0  0  0
  5  6  2  0  0  0
  6  7  1  0  0  0
  7  8  2  0  0  0
  8  9  1  0  0  0
  9 10  2  0  0  0
 10 11  1  0  0  0
 11 12  2  0  0  0
 11 13  1  0  0  0
 13 14  1  0  0  0
  1  3  1  0  0  0
  3  4  1  0  0  0
 27 21  1  0  0  0
 10  5  1  0  0  0
M  END
> <minimizedAffinity>
-7.45820

$$$$
25_0


 27 28  0  0  0  0  0  0  0  0999 V2000
    8.9640    5.1505   -9.3297 C   0  0  0  0  0  0  0  0  0  0  0  0
    8.9996    5.4444  -10.5466 N   0  0  0  0  0  0  0  0  0  0  0  0
    9.7723    3.6105   -8.8232 S   0  0  0  0  0  0  0  0  0  0  0  0
    8.8013    2.5979   -8.9119 H   0  0  0  0  0  0  0  0  0  0  0  0
    8.5069    6.5159  -11.2745 C   0  0  0  0  0  0  0  0  0  0  0  0
    8.9802    7.8178  -11.1744 C   0  0  0  0  0  0  0  0  0  0  0  0
    8.4672    8.8481  -11.9350 C   0  0  0  0  0  0  0  0  0  0  0  0
    7.4403    8.5475  -12.8263 C   0  0  0  0  0  0  0  0  0  0  0  0
    6.9464    7.2839  -12.9557 C   0  0  0  0  0  0  0  0  0  0  0  0
    7.4747    6.2707  -12.1848 C   0  0  0  0  0  0  0  0  0  0  0  0
    6.9391    4.9238  -12.3269 C   0  0  0  0  0  0  0  0  0  0  0  0
    7.5988    4.0870  -13.0106 O   0  0  0  0  0  0  0  0  0  0  0  0
    5.7640    4.5222  -11.7598 O   0  0  0  0  0  0  0  0  0  0  0  0
    4.9741    3.4217  -12.2094 C   0  0  0  0  0  0  0  0  0  0  0  0
    8.3583    5.8996   -8.2916 N   0  0  0  0  0  0  0  0  0  0  0  0
    7.2968    5.8882   -8.2226 H   0  0  0  0  0  0  0  0  0  0  0  0
    8.4233    7.5432   -5.6437 H   0  0  0  0  0  0  0  0  0  0  0  0
    8.4415    7.6212   -6.6345 O   0  0  0  0  0  0  0  0  0  0  0  0
    9.1309    6.6440   -7.3675 C   0  0  0  0  0  0  0  0  0  0  0  0
   10.4316    6.4623   -7.1744 C   0  0  0  0  0  0  0  0  0  0  0  0
   11.1401    7.2911   -6.2186 C   0  0  0  0  0  0  0  0  0  0  0  0
   11.7299    8.5059   -6.5895 C   0  0  0  0  0  0  0  0  0  0  0  0
   12.3832    9.2615   -5.6294 C   0  0  0  0  0  0  0  0  0  0  0  0
   12.4809    8.8714   -4.3197 C   0  0  0  0  0  0  0  0  0  0  0  0
   13.1323    9.6396   -3.3896 F   0  0  0  0  0  0  0  0  0  0  0  0
   11.9055    7.6810   -3.9499 C   0  0  0  0  0  0  0  0  0  0  0  0
   11.2401    6.9006   -4.9016 C   0  0  0  0  0  0  0  0  0  0  0  0
 17 18  1  0  0  0
 18 19  1  0  0  0
 19 20  2  0  0  0
 20 21  1  0  0  0
 21 22  2  0  0  0
 22 23  1  0  0  0
 23 24  2  0  0  0
 24 25  1  0  0  0
 24 26  1  0  0  0
 26 27  2  0  0  0
 19 15  1  0  0  0
 15 16  1  0  0  0
 15  1  1  0  0  0
  1  2  2  0  0  0
  2  5  1  0  0  0
  5  6  2  0  0  0
  6  7  1  0  0  0
  7  8  2  0  0  0
  8  9  1  0  0  0
  9 10  2  0  0  0
 10 11  1  0  0  0
 11 12  2  0  0  0
 11 13  1  0  0  0
 13 14  1  0  0  0
  1  3  1  0  0  0
  3  4  1  0  0  0
 27 21  1  0  0  0
 10  5  1  0  0  0
M  END
> <minimizedAffinity>
-6.96608

$$$$
25_0


 27 28  0  0  0  0  0  0  0  0999 V2000
    9.8601    6.6349   -8.8968 C   0  0  0  0  0  0  0  0  0  0  0  0
   10.3765    6.9614   -7.8035 N   0  0  0  0  0  0  0  0  0  0  0  0
    9.3238    4.9145   -9.0811 S   0  0  0  0  0  0  0  0  0  0  0  0
   10.4227    4.2026   -9.5927 H   0  0  0  0  0  0  0  0  0  0  0  0
   10.8834    8.1561   -7.3175 C   0  0  0  0  0  0  0  0  0  0  0  0
   11.1170    9.2841   -8.0935 C   0  0  0  0  0  0  0  0  0  0  0  0
   11.6072   10.4573   -7.5581 C   0  0  0  0  0  0  0  0  0  0  0  0
   11.8691   10.4868   -6.1907 C   0  0  0  0  0  0  0  0  0  0  0  0
   11.6544    9.4027   -5.3932 C   0  0  0  0  0  0  0  0  0  0  0  0
   11.1644    8.2412   -5.9508 C   0  0  0  0  0  0  0  0  0  0  0  0
   10.9409    7.0864   -5.0920 C   0  0  0  0  0  0  0  0  0  0  0  0
    9.8225    6.4970   -5.1617 O   0  0  0  0  0  0  0  0  0  0  0  0
   11.8766    6.6107   -4.2192 O   0  0  0  0  0  0  0  0  0  0  0  0
   11.8745    6.8455   -2.8113 C   0  0  0  0  0  0  0  0  0  0  0  0
    9.6421    7.4725  -10.0177 N   0  0  0  0  0  0  0  0  0  0  0  0
    9.1028    8.3770   -9.8668 H   0  0  0  0  0  0  0  0  0  0  0  0
    9.0727    7.3080  -13.0781 H   0  0  0  0  0  0  0  0  0  0  0  0
    9.1504    6.7661  -12.2484 O   0  0  0  0  0  0  0  0  0  0  0  0
   10.1226    7.1281  -11.3044 C   0  0  0  0  0  0  0  0  0  0  0  0
   11.4067    7.1328  -11.6406 C   0  0  0  0  0  0  0  0  0  0  0  0
   11.8015    6.7429  -12.9802 C   0  0  0  0  0  0  0  0  0  0  0  0
   11.6861    5.4212  -13.4285 C   0  0  0  0  0  0  0  0  0  0  0  0
   12.0676    5.1106  -14.7236 C   0  0  0  0  0  0  0  0  0  0  0  0
   12.5585    6.0460  -15.5960 C   0  0  0  0  0  0  0  0  0  0  0  0
   12.9274    5.7112  -16.8732 F   0  0  0  0  0  0  0  0  0  0  0  0
   12.6749    7.3434  -15.1623 C   0  0  0  0  0  0  0  0  0  0  0  0
   12.2958    7.6816  -13.8587 C   0  0  0  0  0  0  0  0  0  0  0  0
 17 18  1  0  0  0
 18 19  1  0  0  0
 19 20  2  0  0  0
 20 21  1  0  0  0
 21 22  2  0  0  0
 22 23  1  0  0  0
 23 24  2  0  0  0
 24 25  1  0  0  0
 24 26  1  0  0  0
 26 27  2  0  0  0
 19 15  1  0  0  0
 15 16  1  0  0  0
 15  1  1  0  0  0
  1  2  2  0  0  0
  2  5  1  0  0  0
  5  6  2  0  0  0
  6  7  1  0  0  0
  7  8  2  0  0  0
  8  9  1  0  0  0
  9 10  2  0  0  0
 10 11  1  0  0  0
 11 12  2  0  0  0
 11 13  1  0  0  0
 13 14  1  0  0  0
  1  3  1  0  0  0
  3  4  1  0  0  0
 27 21  1  0  0  0
 10  5  1  0  0  0
M  END
> <minimizedAffinity>
-6.59010

$$$$
