25_1


 37 40  0  0  0  0  0  0  0  0999 V2000
   10.3596    7.3468  -10.1779 C   0  0  0  0  0  0  0  0  0  0  0  0
    9.4413    6.4510  -10.6906 C   0  0  0  0  0  0  0  0  0  0  0  0
    9.6112    5.8247  -11.9169 C   0  0  0  0  0  0  0  0  0  0  0  0
   10.7629    6.1497  -12.6057 C   0  0  0  0  0  0  0  0  0  0  0  0
   11.6969    7.0578  -12.0895 C   0  0  0  0  0  0  0  0  0  0  0  0
   11.5054    7.6633  -10.8748 C   0  0  0  0  0  0  0  0  0  0  0  0
    8.6451    4.8794  -12.4609 C   0  0  0  0  0  0  0  0  0  0  0  0
    9.0131    3.9138  -13.3738 C   0  0  0  0  0  0  0  0  0  0  0  0
    8.0937    3.0014  -13.9023 C   0  0  0  0  0  0  0  0  0  0  0  0
    8.4873    2.1165  -14.7537 N   0  0  0  0  0  0  0  0  0  0  0  0
    6.7822    3.0726  -13.4965 C   0  0  0  0  0  0  0  0  0  0  0  0
    5.9053    2.2833  -13.9323 O   0  0  0  0  0  0  0  0  0  0  0  0
    6.4617    4.0261  -12.6064 N   0  0  0  0  0  0  0  0  0  0  0  0
    5.0741    4.0901  -12.1867 C   0  0  0  0  0  0  0  0  0  0  0  0
    7.3345    4.8879  -12.1084 N   0  0  0  0  0  0  0  0  0  0  0  0
    6.9734    5.5754  -11.4323 H   0  0  0  0  0  0  0  0  0  0  0  0
    7.5265    1.2062  -15.2696 C   0  0  0  0  0  0  0  0  0  0  0  0
    6.9112    1.5715  -16.4694 C   0  0  0  0  0  0  0  0  0  0  0  0
    5.9659    0.7590  -17.0532 C   0  0  0  0  0  0  0  0  0  0  0  0
    5.6405   -0.4223  -16.4273 C   0  0  0  0  0  0  0  0  0  0  0  0
    4.7172   -1.2504  -16.9659 F   0  0  0  0  0  0  0  0  0  0  0  0
    6.2478   -0.8016  -15.2260 C   0  0  0  0  0  0  0  0  0  0  0  0
    7.2051    0.0143  -14.6285 C   0  0  0  0  0  0  0  0  0  0  0  0
   10.4249    7.1843   -7.7566 C   0  0  0  0  0  0  0  0  0  0  0  0
   10.8709    6.0279   -7.9402 O   0  0  0  0  0  0  0  0  0  0  0  0
   10.1263    7.9553   -8.9136 N   0  0  0  0  0  0  0  0  0  0  0  0
    9.7486    8.9345   -8.8397 H   0  0  0  0  0  0  0  0  0  0  0  0
   11.9096    8.4816   -2.5742 H   0  0  0  0  0  0  0  0  0  0  0  0
   12.2756    8.1292   -3.4579 O   0  0  0  0  0  0  0  0  0  0  0  0
   11.4589    8.2250   -4.5973 C   0  0  0  0  0  0  0  0  0  0  0  0
   11.0052    7.2333   -5.3593 C   0  0  0  0  0  0  0  0  0  0  0  0
   10.1898    7.7976   -6.4390 C   0  0  0  0  0  0  0  0  0  0  0  0
   10.4422    9.2740   -6.4235 C   0  0  0  0  0  0  0  0  0  0  0  0
   11.0030    9.4786   -5.0849 N   0  0  0  0  0  0  0  0  0  0  0  0
   11.0291   10.4256   -4.6263 H   0  0  0  0  0  0  0  0  0  0  0  0
   12.3903    8.5697  -10.3088 O   0  0  0  0  0  0  0  0  0  0  0  0
   13.5875    8.0300   -9.7622 C   0  0  0  0  0  0  0  0  0  0  0  0
 28 29  1  0  0  0
 29 30  1  0  0  0
 30 31  2  0  0  0
 31 32  1  0  0  0
 32 24  1  0  0  0
 24 25  2  0  0  0
 24 26  1  0  0  0
 26 27  1  0  0  0
 26  1  1  0  0  0
  1  2  2  0  0  0
  2  3  1  0  0  0
  3  7  1  0  0  0
  7  8  2  0  0  0
  8  9  1  0  0  0
  9 10  2  0  0  0
 10 17  1  0  0  0
 17 18  2  0  0  0
 18 19  1  0  0  0
 19 20  2  0  0  0
 20 21  1  0  0  0
 20 22  1  0  0  0
 22 23  2  0  0  0
  9 11  1  0  0  0
 11 12  2  0  0  0
 11 13  1  0  0  0
 13 14  1  0  0  0
 13 15  1  0  0  0
 15 16  1  0  0  0
  3  4  2  0  0  0
  4  5  1  0  0  0
  5  6  2  0  0  0
  6 36  1  0  0  0
 36 37  1  0  0  0
 32 33  1  0  0  0
 33 34  1  0  0  0
 34 35  1  0  0  0
 34 30  1  0  0  0
  6  1  1  0  0  0
 15  7  1  0  0  0
 23 17  1  0  0  0
M  END
> <minimizedAffinity>
-10.51965

$$$$
25_1


 37 40  0  0  0  0  0  0  0  0999 V2000
   10.1581    4.9925  -14.5116 C   0  0  0  0  0  0  0  0  0  0  0  0
   10.4670    5.5065  -13.2670 C   0  0  0  0  0  0  0  0  0  0  0  0
   11.4360    6.4815  -13.0795 C   0  0  0  0  0  0  0  0  0  0  0  0
   12.0832    6.9157  -14.2193 C   0  0  0  0  0  0  0  0  0  0  0  0
   11.7732    6.3970  -15.4836 C   0  0  0  0  0  0  0  0  0  0  0  0
   10.8111    5.4338  -15.6420 C   0  0  0  0  0  0  0  0  0  0  0  0
   11.7644    7.0261  -11.7687 C   0  0  0  0  0  0  0  0  0  0  0  0
   10.8300    7.0893  -10.7568 C   0  0  0  0  0  0  0  0  0  0  0  0
   11.1348    7.6101   -9.4947 C   0  0  0  0  0  0  0  0  0  0  0  0
   10.2255    7.6475   -8.5810 N   0  0  0  0  0  0  0  0  0  0  0  0
   12.4075    8.0730   -9.2591 C   0  0  0  0  0  0  0  0  0  0  0  0
   12.7476    8.5533   -8.1475 O   0  0  0  0  0  0  0  0  0  0  0  0
   13.2901    7.9950  -10.2686 N   0  0  0  0  0  0  0  0  0  0  0  0
   14.6298    8.4870  -10.0064 C   0  0  0  0  0  0  0  0  0  0  0  0
   12.9981    7.5014  -11.4618 N   0  0  0  0  0  0  0  0  0  0  0  0
   13.7563    7.4925  -12.1583 H   0  0  0  0  0  0  0  0  0  0  0  0
   10.5704    8.1829   -7.3113 C   0  0  0  0  0  0  0  0  0  0  0  0
   10.9340    7.2585   -6.3291 C   0  0  0  0  0  0  0  0  0  0  0  0
   11.2858    7.6742   -5.0649 C   0  0  0  0  0  0  0  0  0  0  0  0
   11.2711    9.0225   -4.7906 C   0  0  0  0  0  0  0  0  0  0  0  0
   11.6095    9.4746   -3.5621 F   0  0  0  0  0  0  0  0  0  0  0  0
   10.9094    9.9599   -5.7634 C   0  0  0  0  0  0  0  0  0  0  0  0
   10.5521    9.5481   -7.0448 C   0  0  0  0  0  0  0  0  0  0  0  0
    9.4903    2.6772  -14.2165 C   0  0  0  0  0  0  0  0  0  0  0  0
   10.6468    2.4990  -13.7685 O   0  0  0  0  0  0  0  0  0  0  0  0
    9.1534    3.9934  -14.6364 N   0  0  0  0  0  0  0  0  0  0  0  0
    8.2018    4.2207  -15.0235 H   0  0  0  0  0  0  0  0  0  0  0  0
    5.2590    0.1806  -16.7871 H   0  0  0  0  0  0  0  0  0  0  0  0
    5.9870    0.8820  -16.9185 O   0  0  0  0  0  0  0  0  0  0  0  0
    7.0110    0.9602  -15.9594 C   0  0  0  0  0  0  0  0  0  0  0  0
    7.3274    1.9976  -15.1891 C   0  0  0  0  0  0  0  0  0  0  0  0
    8.4629    1.6298  -14.3382 C   0  0  0  0  0  0  0  0  0  0  0  0
    8.9966    0.3431  -14.8890 C   0  0  0  0  0  0  0  0  0  0  0  0
    7.8724   -0.1381  -15.6969 N   0  0  0  0  0  0  0  0  0  0  0  0
    7.7855   -1.1439  -15.9948 H   0  0  0  0  0  0  0  0  0  0  0  0
   10.4576    4.8801  -16.8640 O   0  0  0  0  0  0  0  0  0  0  0  0
   11.2527    5.2534  -17.9829 C   0  0  0  0  0  0  0  0  0  0  0  0
 28 29  1  0  0  0
 29 30  1  0  0  0
 30 31  2  0  0  0
 31 32  1  0  0  0
 32 24  1  0  0  0
 24 25  2  0  0  0
 24 26  1  0  0  0
 26 27  1  0  0  0
 26  1  1  0  0  0
  1  2  2  0  0  0
  2  3  1  0  0  0
  3  7  1  0  0  0
  7  8  2  0  0  0
  8  9  1  0  0  0
  9 10  2  0  0  0
 10 17  1  0  0  0
 17 18  2  0  0  0
 18 19  1  0  0  0
 19 20  2  0  0  0
 20 21  1  0  0  0
 20 22  1  0  0  0
 22 23  2  0  0  0
  9 11  1  0  0  0
 11 12  2  0  0  0
 11 13  1  0  0  0
 13 14  1  0  0  0
 13 15  1  0  0  0
 15 16  1  0  0  0
  3  4  2  0  0  0
  4  5  1  0  0  0
  5  6  2  0  0  0
  6 36  1  0  0  0
 36 37  1  0  0  0
 32 33  1  0  0  0
 33 34  1  0  0  0
 34 35  1  0  0  0
 34 30  1  0  0  0
  6  1  1  0  0  0
 15  7  1  0  0  0
 23 17  1  0  0  0
M  END
> <minimizedAffinity>
-10.12738

$$$$
25_1


 37 40  0  0  0  0  0  0  0  0999 V2000
   10.6325    5.4763  -14.3265 C   0  0  0  0  0  0  0  0  0  0  0  0
   10.4306    5.7254  -12.9827 C   0  0  0  0  0  0  0  0  0  0  0  0
   11.1566    6.6766  -12.2807 C   0  0  0  0  0  0  0  0  0  0  0  0
   12.1041    7.3697  -13.0075 C   0  0  0  0  0  0  0  0  0  0  0  0
   12.3123    7.1202  -14.3706 C   0  0  0  0  0  0  0  0  0  0  0  0
   11.5814    6.1746  -15.0414 C   0  0  0  0  0  0  0  0  0  0  0  0
   10.9464    6.9422  -10.8636 C   0  0  0  0  0  0  0  0  0  0  0  0
   11.6468    7.9276  -10.2007 C   0  0  0  0  0  0  0  0  0  0  0  0
   11.4529    8.1908   -8.8405 C   0  0  0  0  0  0  0  0  0  0  0  0
   12.1328    9.1237   -8.2657 N   0  0  0  0  0  0  0  0  0  0  0  0
   10.5339    7.4411   -8.1454 C   0  0  0  0  0  0  0  0  0  0  0  0
   10.3111    7.6258   -6.9214 O   0  0  0  0  0  0  0  0  0  0  0  0
    9.8713    6.4906   -8.8248 N   0  0  0  0  0  0  0  0  0  0  0  0
    8.9042    5.7067   -8.0791 C   0  0  0  0  0  0  0  0  0  0  0  0
   10.0574    6.2443  -10.1121 N   0  0  0  0  0  0  0  0  0  0  0  0
    9.4918    5.4904  -10.5267 H   0  0  0  0  0  0  0  0  0  0  0  0
   11.9099    9.3634   -6.8834 C   0  0  0  0  0  0  0  0  0  0  0  0
   12.8478    8.8187   -6.0029 C   0  0  0  0  0  0  0  0  0  0  0  0
   12.7233    8.9933   -4.6432 C   0  0  0  0  0  0  0  0  0  0  0  0
   11.6528    9.7173   -4.1708 C   0  0  0  0  0  0  0  0  0  0  0  0
   11.4918    9.9133   -2.8426 F   0  0  0  0  0  0  0  0  0  0  0  0
   10.7058   10.2687   -5.0398 C   0  0  0  0  0  0  0  0  0  0  0  0
   10.8242   10.0969   -6.4166 C   0  0  0  0  0  0  0  0  0  0  0  0
   10.2365    3.1295  -14.8050 C   0  0  0  0  0  0  0  0  0  0  0  0
   11.2297    2.9097  -14.0734 O   0  0  0  0  0  0  0  0  0  0  0  0
    9.8543    4.4868  -14.9887 N   0  0  0  0  0  0  0  0  0  0  0  0
    9.0312    4.7502  -15.5888 H   0  0  0  0  0  0  0  0  0  0  0  0
    9.6165   -1.8117  -17.2432 H   0  0  0  0  0  0  0  0  0  0  0  0
   10.2628   -1.2624  -16.6779 O   0  0  0  0  0  0  0  0  0  0  0  0
    9.7882   -0.0738  -16.0976 C   0  0  0  0  0  0  0  0  0  0  0  0
   10.2352    1.1635  -16.2953 C   0  0  0  0  0  0  0  0  0  0  0  0
    9.4427    2.0912  -15.4827 C   0  0  0  0  0  0  0  0  0  0  0  0
    8.6511    1.2432  -14.5350 C   0  0  0  0  0  0  0  0  0  0  0  0
    8.7071   -0.0734  -15.1765 N   0  0  0  0  0  0  0  0  0  0  0  0
    8.0260   -0.8410  -14.9425 H   0  0  0  0  0  0  0  0  0  0  0  0
   11.7385    5.8802  -16.3881 O   0  0  0  0  0  0  0  0  0  0  0  0
   12.0523    6.9726  -17.2434 C   0  0  0  0  0  0  0  0  0  0  0  0
 28 29  1  0  0  0
 29 30  1  0  0  0
 30 31  2  0  0  0
 31 32  1  0  0  0
 32 24  1  0  0  0
 24 25  2  0  0  0
 24 26  1  0  0  0
 26 27  1  0  0  0
 26  1  1  0  0  0
  1  2  2  0  0  0
  2  3  1  0  0  0
  3  7  1  0  0  0
  7  8  2  0  0  0
  8  9  1  0  0  0
  9 10  2  0  0  0
 10 17  1  0  0  0
 17 18  2  0  0  0
 18 19  1  0  0  0
 19 20  2  0  0  0
 20 21  1  0  0  0
 20 22  1  0  0  0
 22 23  2  0  0  0
  9 11  1  0  0  0
 11 12  2  0  0  0
 11 13  1  0  0  0
 13 14  1  0  0  0
 13 15  1  0  0  0
 15 16  1  0  0  0
  3  4  2  0  0  0
  4  5  1  0  0  0
  5  6  2  0  0  0
  6 36  1  0  0  0
 36 37  1  0  0  0
 32 33  1  0  0  0
 33 34  1  0  0  0
 34 35  1  0  0  0
 34 30  1  0  0  0
  6  1  1  0  0  0
 15  7  1  0  0  0
 23 17  1  0  0  0
M  END
> <minimizedAffinity>
-10.03576

$$$$
25_1


 37 40  0  0  0  0  0  0  0  0999 V2000
    8.0250    2.2555  -16.2511 C   0  0  0  0  0  0  0  0  0  0  0  0
    8.5070    3.1131  -15.2812 C   0  0  0  0  0  0  0  0  0  0  0  0
    9.5492    3.9982  -15.5160 C   0  0  0  0  0  0  0  0  0  0  0  0
   10.0854    3.9749  -16.7882 C   0  0  0  0  0  0  0  0  0  0  0  0
    9.5996    3.1066  -17.7750 C   0  0  0  0  0  0  0  0  0  0  0  0
    8.5683    2.2413  -17.5174 C   0  0  0  0  0  0  0  0  0  0  0  0
   10.0603    4.9042  -14.4958 C   0  0  0  0  0  0  0  0  0  0  0  0
    9.4474    5.0295  -13.2670 C   0  0  0  0  0  0  0  0  0  0  0  0
    9.9297    5.8962  -12.2805 C   0  0  0  0  0  0  0  0  0  0  0  0
    9.3208    5.9778  -11.1467 N   0  0  0  0  0  0  0  0  0  0  0  0
   11.0507    6.6455  -12.5479 C   0  0  0  0  0  0  0  0  0  0  0  0
   11.5362    7.4436  -11.7057 O   0  0  0  0  0  0  0  0  0  0  0  0
   11.6200    6.4965  -13.7553 N   0  0  0  0  0  0  0  0  0  0  0  0
   12.8025    7.2934  -14.0244 C   0  0  0  0  0  0  0  0  0  0  0  0
   11.1608    5.6752  -14.6865 N   0  0  0  0  0  0  0  0  0  0  0  0
   11.6801    5.6446  -15.5750 H   0  0  0  0  0  0  0  0  0  0  0  0
    9.8384    6.8682  -10.1684 C   0  0  0  0  0  0  0  0  0  0  0  0
   10.3209    6.2838   -8.9949 C   0  0  0  0  0  0  0  0  0  0  0  0
   10.8435    7.0586   -7.9843 C   0  0  0  0  0  0  0  0  0  0  0  0
   10.8797    8.4233   -8.1567 C   0  0  0  0  0  0  0  0  0  0  0  0
   11.3846    9.2220   -7.1896 F   0  0  0  0  0  0  0  0  0  0  0  0
   10.4005    9.0228   -9.3258 C   0  0  0  0  0  0  0  0  0  0  0  0
    9.8702    8.2465  -10.3531 C   0  0  0  0  0  0  0  0  0  0  0  0
    7.2936    0.0918  -15.4282 C   0  0  0  0  0  0  0  0  0  0  0  0
    8.5124   -0.1584  -15.2797 O   0  0  0  0  0  0  0  0  0  0  0  0
    6.9530    1.3715  -15.9463 N   0  0  0  0  0  0  0  0  0  0  0  0
    5.9511    1.6545  -16.0988 H   0  0  0  0  0  0  0  0  0  0  0  0
    2.0918   -1.0731  -13.9023 H   0  0  0  0  0  0  0  0  0  0  0  0
    2.6929   -0.3124  -14.2171 O   0  0  0  0  0  0  0  0  0  0  0  0
    3.9609   -0.6392  -14.7270 C   0  0  0  0  0  0  0  0  0  0  0  0
    5.1479   -0.2585  -14.2623 C   0  0  0  0  0  0  0  0  0  0  0  0
    6.1973   -0.8368  -15.1068 C   0  0  0  0  0  0  0  0  0  0  0  0
    5.5055   -1.3736  -16.3221 C   0  0  0  0  0  0  0  0  0  0  0  0
    4.1142   -1.4673  -15.8706 N   0  0  0  0  0  0  0  0  0  0  0  0
    3.4040   -2.0687  -16.3623 H   0  0  0  0  0  0  0  0  0  0  0  0
    8.0422    1.3580  -18.4490 O   0  0  0  0  0  0  0  0  0  0  0  0
    8.9089    0.3260  -18.9041 C   0  0  0  0  0  0  0  0  0  0  0  0
 28 29  1  0  0  0
 29 30  1  0  0  0
 30 31  2  0  0  0
 31 32  1  0  0  0
 32 24  1  0  0  0
 24 25  2  0  0  0
 24 26  1  0  0  0
 26 27  1  0  0  0
 26  1  1  0  0  0
  1  2  2  0  0  0
  2  3  1  0  0  0
  3  7  1  0  0  0
  7  8  2  0  0  0
  8  9  1  0  0  0
  9 10  2  0  0  0
 10 17  1  0  0  0
 17 18  2  0  0  0
 18 19  1  0  0  0
 19 20  2  0  0  0
 20 21  1  0  0  0
 20 22  1  0  0  0
 22 23  2  0  0  0
  9 11  1  0  0  0
 11 12  2  0  0  0
 11 13  1  0  0  0
 13 14  1  0  0  0
 13 15  1  0  0  0
 15 16  1  0  0  0
  3  4  2  0  0  0
  4  5  1  0  0  0
  5  6  2  0  0  0
  6 36  1  0  0  0
 36 37  1  0  0  0
 32 33  1  0  0  0
 33 34  1  0  0  0
 34 35  1  0  0  0
 34 30  1  0  0  0
  6  1  1  0  0  0
 15  7  1  0  0  0
 23 17  1  0  0  0
M  END
> <minimizedAffinity>
-8.85852

$$$$
25_1


 37 40  0  0  0  0  0  0  0  0999 V2000
    9.0812    2.2488  -16.7810 C   0  0  0  0  0  0  0  0  0  0  0  0
    8.7658    3.0342  -15.6892 C   0  0  0  0  0  0  0  0  0  0  0  0
    9.7107    3.7970  -15.0183 C   0  0  0  0  0  0  0  0  0  0  0  0
   11.0000    3.7273  -15.5075 C   0  0  0  0  0  0  0  0  0  0  0  0
   11.3243    2.9318  -16.6146 C   0  0  0  0  0  0  0  0  0  0  0  0
   10.3717    2.1873  -17.2602 C   0  0  0  0  0  0  0  0  0  0  0  0
    9.3820    4.6266  -13.8665 C   0  0  0  0  0  0  0  0  0  0  0  0
   10.3578    5.1074  -13.0192 C   0  0  0  0  0  0  0  0  0  0  0  0
   10.0531    5.9046  -11.9108 C   0  0  0  0  0  0  0  0  0  0  0  0
   11.0020    6.3299  -11.1481 N   0  0  0  0  0  0  0  0  0  0  0  0
    8.7379    6.2167  -11.6610 C   0  0  0  0  0  0  0  0  0  0  0  0
    8.3955    6.9285  -10.6822 O   0  0  0  0  0  0  0  0  0  0  0  0
    7.8159    5.7304  -12.5080 N   0  0  0  0  0  0  0  0  0  0  0  0
    6.4315    6.0675  -12.2328 C   0  0  0  0  0  0  0  0  0  0  0  0
    8.1078    4.9762  -13.5561 N   0  0  0  0  0  0  0  0  0  0  0  0
    7.3171    4.6607  -14.1353 H   0  0  0  0  0  0  0  0  0  0  0  0
   10.6560    7.1371  -10.0315 C   0  0  0  0  0  0  0  0  0  0  0  0
   10.2956    6.4571   -8.8657 C   0  0  0  0  0  0  0  0  0  0  0  0
    9.9429    7.1463   -7.7275 C   0  0  0  0  0  0  0  0  0  0  0  0
    9.9536    8.5217   -7.7646 C   0  0  0  0  0  0  0  0  0  0  0  0
    9.6142    9.2385   -6.6694 F   0  0  0  0  0  0  0  0  0  0  0  0
   10.3121    9.2165   -8.9242 C   0  0  0  0  0  0  0  0  0  0  0  0
   10.6701    8.5272  -10.0800 C   0  0  0  0  0  0  0  0  0  0  0  0
    7.7746    0.2055  -16.8881 C   0  0  0  0  0  0  0  0  0  0  0  0
    8.4361   -0.1585  -15.8881 O   0  0  0  0  0  0  0  0  0  0  0  0
    8.0652    1.4897  -17.4252 N   0  0  0  0  0  0  0  0  0  0  0  0
    7.5518    1.8644  -18.2637 H   0  0  0  0  0  0  0  0  0  0  0  0
    2.6884   -1.9833  -17.1778 H   0  0  0  0  0  0  0  0  0  0  0  0
    3.2487   -1.2996  -16.6702 O   0  0  0  0  0  0  0  0  0  0  0  0
    4.5032   -0.9498  -17.1979 C   0  0  0  0  0  0  0  0  0  0  0  0
    5.6960   -1.0974  -16.6277 C   0  0  0  0  0  0  0  0  0  0  0  0
    6.7259   -0.5948  -17.5417 C   0  0  0  0  0  0  0  0  0  0  0  0
    5.9994    0.1530  -18.6173 C   0  0  0  0  0  0  0  0  0  0  0  0
    4.6336   -0.3619  -18.4842 N   0  0  0  0  0  0  0  0  0  0  0  0
    3.9232   -0.2739  -19.2559 H   0  0  0  0  0  0  0  0  0  0  0  0
   10.6274    1.3809  -18.3598 O   0  0  0  0  0  0  0  0  0  0  0  0
   11.3972    0.2088  -18.1212 C   0  0  0  0  0  0  0  0  0  0  0  0
 28 29  1  0  0  0
 29 30  1  0  0  0
 30 31  2  0  0  0
 31 32  1  0  0  0
 32 24  1  0  0  0
 24 25  2  0  0  0
 24 26  1  0  0  0
 26 27  1  0  0  0
 26  1  1  0  0  0
  1  2  2  0  0  0
  2  3  1  0  0  0
  3  7  1  0  0  0
  7  8  2  0  0  0
  8  9  1  0  0  0
  9 10  2  0  0  0
 10 17  1  0  0  0
 17 18  2  0  0  0
 18 19  1  0  0  0
 19 20  2  0  0  0
 20 21  1  0  0  0
 20 22  1  0  0  0
 22 23  2  0  0  0
  9 11  1  0  0  0
 11 12  2  0  0  0
 11 13  1  0  0  0
 13 14  1  0  0  0
 13 15  1  0  0  0
 15 16  1  0  0  0
  3  4  2  0  0  0
  4  5  1  0  0  0
  5  6  2  0  0  0
  6 36  1  0  0  0
 36 37  1  0  0  0
 32 33  1  0  0  0
 33 34  1  0  0  0
 34 35  1  0  0  0
 34 30  1  0  0  0
  6  1  1  0  0  0
 15  7  1  0  0  0
 23 17  1  0  0  0
M  END
> <minimizedAffinity>
-7.86846

$$$$
