6np5_ligand
     RDKit          3D

 33 35  0  0  0  0  0  0  0  0999 V2000
  115.3449  -14.0072   -6.5650 C   0  0  2  0  0  0  0  0  0  0  0  0
  115.7315  -12.3969   -6.4760 C   0  0  1  0  0  0  0  0  0  0  0  0
  115.5614  -11.7528   -7.8247 C   0  0  2  0  0  0  0  0  0  0  0  0
  116.2611  -12.5259   -8.9664 C   0  0  1  0  0  0  0  0  0  0  0  0
  115.5895  -13.9578   -8.9463 C   0  0  1  0  0  0  0  0  0  0  0  0
  116.2271  -14.8213  -10.0252 C   0  0  0  0  0  0  0  0  0  0  0  0
  110.9997  -16.7866   -5.9983 C   0  0  1  0  0  0  0  0  0  0  0  0
  111.1312  -15.8414   -7.1742 C   0  0  1  0  0  0  0  0  0  0  0  0
  112.6343  -15.4777   -7.3259 C   0  0  2  0  0  0  0  0  0  0  0  0
  113.1063  -14.7768   -6.0988 C   0  0  1  0  0  0  0  0  0  0  0  0
  112.9903  -15.7875   -4.9201 C   0  0  2  0  0  0  0  0  0  0  0  0
  111.5345  -16.0496   -4.7457 C   0  0  0  0  0  0  0  0  0  0  0  0
  110.5459  -16.3333   -9.4277 C   0  0  1  0  0  0  0  0  0  0  0  0
  109.8613  -15.2062  -10.2673 C   0  0  1  0  0  0  0  0  0  0  0  0
  108.3463  -15.4873  -10.4599 C   0  0  2  0  0  0  0  0  0  0  0  0
  108.0690  -16.8831  -10.9948 C   0  0  1  0  0  0  0  0  0  0  0  0
  108.6341  -17.8857   -9.9198 C   0  0  1  0  0  0  0  0  0  0  0  0
  108.3744  -19.3801  -10.4069 C   0  0  0  0  0  0  0  0  0  0  0  0
  115.5707  -15.8361  -10.5328 N   0  0  0  0  0  0  0  0  0  0  0  0
  113.4883  -15.2082   -3.6291 N   0  0  0  0  0  0  0  0  0  0  0  0
  109.5804  -17.1198   -5.8630 N   0  0  0  0  0  0  0  0  0  0  0  0
  107.7940  -14.4776  -11.4986 N   0  0  0  0  0  0  0  0  0  0  0  0
  115.7702  -14.6523   -7.7181 O   0  0  0  0  0  0  0  0  0  0  0  0
  116.2005  -10.3791   -7.7233 O   0  0  0  0  0  0  0  0  0  0  0  0
  116.2407  -11.8432  -10.1676 O   0  0  0  0  0  0  0  0  0  0  0  0
  114.3670  -14.2631   -6.1731 O   0  0  0  0  0  0  0  0  0  0  0  0
  112.7717  -14.5403   -8.4062 O   0  0  0  0  0  0  0  0  0  0  0  0
  110.6111  -16.4005   -8.1759 O   0  0  0  0  0  0  0  0  0  0  0  0
  110.0839  -17.6404   -9.7629 O   0  0  0  0  0  0  0  0  0  0  0  0
  109.9903  -14.0032   -9.6376 O   0  0  0  0  0  0  0  0  0  0  0  0
  106.7501  -17.1246  -11.2611 O   0  0  0  0  0  0  0  0  0  0  0  0
  109.2682  -20.1724  -10.0650 O   0  0  0  0  0  0  0  0  0  0  0  0
  114.9691  -11.5973   -5.3351 N   0  0  0  0  0  0  0  0  0  0  0  0
  1  2  1  0
  1 23  1  0
  1 26  1  6
  2  3  1  0
  2 33  1  1
  3  4  1  0
  3 24  1  1
  5  4  1  0
  4 25  1  6
  5  6  1  6
 23  5  1  0
  6 19  1  0
  8  7  1  0
  7 12  1  0
  7 21  1  1
  8  9  1  0
  8 28  1  6
  9 10  1  0
  9 27  1  6
 10 11  1  0
 10 26  1  6
 12 11  1  0
 11 20  1  1
 13 14  1  0
 13 28  1  1
 13 29  1  0
 14 15  1  0
 14 30  1  1
 15 16  1  0
 15 22  1  6
 16 17  1  0
 16 31  1  1
 17 18  1  6
 17 29  1  0
 18 32  1  0
M  CHG  5  19   1  20   1  21   1  22   1  33   1
M  END
$$$$
