6np5_ligand
     RDKit          3D

 33 35  0  0  0  0  0  0  0  0999 V2000
   -7.9174   -0.8548   -4.4877 C   0  0  2  0  0  0  0  0  0  0  0  0
   -7.2469   -1.6258   -5.6050 C   0  0  1  0  0  0  0  0  0  0  0  0
   -5.8700   -0.8431   -6.0190 C   0  0  2  0  0  0  0  0  0  0  0  0
   -6.1661    0.6590   -6.2745 C   0  0  1  0  0  0  0  0  0  0  0  0
   -6.7622    1.2481   -4.9249 C   0  0  1  0  0  0  0  0  0  0  0  0
   -7.1443    2.8455   -5.1194 C   0  0  0  0  0  0  0  0  0  0  0  0
   -9.7510   -1.2461   -0.0744 C   0  0  1  0  0  0  0  0  0  0  0  0
  -10.3937   -1.2940   -1.4749 C   0  0  1  0  0  0  0  0  0  0  0  0
   -9.4375   -1.7563   -2.4212 C   0  0  2  0  0  0  0  0  0  0  0  0
   -8.1750   -0.9333   -2.4159 C   0  0  1  0  0  0  0  0  0  0  0  0
   -7.4972   -1.0280   -1.0985 C   0  0  2  0  0  0  0  0  0  0  0  0
   -8.4716   -0.3942   -0.1209 C   0  0  0  0  0  0  0  0  0  0  0  0
  -12.7020   -1.9065   -1.9907 C   0  0  1  0  0  0  0  0  0  0  0  0
  -13.3881   -3.2289   -2.4058 C   0  0  1  0  0  0  0  0  0  0  0  0
  -13.6056   -3.3115   -3.8519 C   0  0  2  0  0  0  0  0  0  0  0  0
  -14.2522   -2.1068   -4.5568 C   0  0  1  0  0  0  0  0  0  0  0  0
  -13.4557   -0.8637   -4.1610 C   0  0  1  0  0  0  0  0  0  0  0  0
  -14.1408    0.3915   -4.8177 C   0  0  0  0  0  0  0  0  0  0  0  0
   -7.2506    3.3061   -3.6622 N   0  0  0  0  0  0  0  0  0  0  0  0
   -6.2037   -0.3280   -1.1392 N   0  0  0  0  0  0  0  0  0  0  0  0
  -10.6917   -0.7388    0.9330 N   0  0  0  0  0  0  0  0  0  0  0  0
  -14.5216   -4.5657   -4.1806 N   0  0  0  0  0  0  0  0  0  0  0  0
   -7.9786    0.5545   -4.6604 O   0  0  0  0  0  0  0  0  0  0  0  0
   -5.4609   -1.4674   -7.2938 O   0  0  0  0  0  0  0  0  0  0  0  0
   -4.9196    1.2542   -6.6271 O   0  0  0  0  0  0  0  0  0  0  0  0
   -7.4135   -1.3550   -3.2775 O   0  0  0  0  0  0  0  0  0  0  0  0
  -10.0678   -1.7212   -3.6822 O   0  0  0  0  0  0  0  0  0  0  0  0
  -11.3449   -2.2009   -1.6903 O   0  0  0  0  0  0  0  0  0  0  0  0
  -13.1776   -0.7555   -2.7536 O   0  0  0  0  0  0  0  0  0  0  0  0
  -12.5576   -4.3686   -1.9746 O   0  0  0  0  0  0  0  0  0  0  0  0
  -14.2501   -2.2560   -5.9932 O   0  0  0  0  0  0  0  0  0  0  0  0
  -13.8436    1.5049   -4.4863 O   0  0  0  0  0  0  0  0  0  0  0  0
   -6.9443   -3.1293   -5.2867 N   0  0  0  0  0  0  0  0  0  0  0  0
  1  2  1  0
  1 23  1  0
  1 26  1  1
  2  3  1  0
  2 33  1  1
  3  4  1  0
  3 24  1  6
  5  4  1  0
  4 25  1  1
  5  6  1  6
 23  5  1  0
  6 19  1  0
  8  7  1  0
  7 12  1  0
  7 21  1  1
  8  9  1  0
  8 28  1  1
  9 10  1  0
  9 27  1  6
 10 11  1  0
 10 26  1  6
 12 11  1  0
 11 20  1  6
 13 14  1  0
 13 28  1  6
 13 29  1  0
 14 15  1  0
 14 30  1  6
 15 16  1  0
 15 22  1  1
 16 17  1  0
 16 31  1  6
 17 18  1  1
 17 29  1  0
 18 32  1  0
M  CHG  5  19   1  20   1  21   1  22   1  33   1
M  END
$$$$
