6np5_ligand
     RDKit          3D

 33 35  0  0  0  0  0  0  0  0999 V2000
   -6.7672   -4.4600   -4.6903 C   0  0  0  0  0  0  0  0  0  0  0  0
   -8.1023   -3.8998   -4.9061 C   0  0  0  0  0  0  0  0  0  0  0  0
   -9.2123   -4.8688   -4.7954 C   0  0  0  0  0  0  0  0  0  0  0  0
   -8.8804   -6.2999   -4.5015 C   0  0  0  0  0  0  0  0  0  0  0  0
   -7.4454   -6.7063   -4.3387 C   0  0  0  0  0  0  0  0  0  0  0  0
   -7.0902   -8.1005   -4.0391 C   0  0  0  0  0  0  0  0  0  0  0  0
   -2.9850   -1.9169   -2.6169 C   0  0  0  0  0  0  0  0  0  0  0  0
   -4.0939   -2.5066   -1.9052 C   0  0  0  0  0  0  0  0  0  0  0  0
   -5.0680   -3.2632   -2.6933 C   0  0  0  0  0  0  0  0  0  0  0  0
   -4.9558   -3.3011   -4.1174 C   0  0  0  0  0  0  0  0  0  0  0  0
   -3.7977   -2.8472   -4.7856 C   0  0  0  0  0  0  0  0  0  0  0  0
   -2.8790   -2.0606   -4.0468 C   0  0  0  0  0  0  0  0  0  0  0  0
   -4.5111   -2.9782    0.3971 C   0  0  0  0  0  0  0  0  0  0  0  0
   -5.5595   -2.4272    1.2750 C   0  0  0  0  0  0  0  0  0  0  0  0
   -5.9306   -3.2122    2.5035 C   0  0  0  0  0  0  0  0  0  0  0  0
   -5.2012   -4.4956    2.7790 C   0  0  0  0  0  0  0  0  0  0  0  0
   -4.0950   -4.9802    1.8358 C   0  0  0  0  0  0  0  0  0  0  0  0
   -3.4058   -6.2450    2.1877 C   0  0  0  0  0  0  0  0  0  0  0  0
   -5.8228   -8.2416   -3.3542 N   0  0  0  0  0  0  0  0  0  0  0  0
   -3.5732   -3.1950   -6.0952 N   0  0  0  0  0  0  0  0  0  0  0  0
   -2.0515   -1.2186   -1.8575 N   0  0  0  0  0  0  0  0  0  0  0  0
   -6.9438   -2.7914    3.3744 N   0  0  0  0  0  0  0  0  0  0  0  0
   -6.5222   -5.7808   -4.4359 O   0  0  0  0  0  0  0  0  0  0  0  0
  -10.4722   -4.4262   -4.9015 O   0  0  0  0  0  0  0  0  0  0  0  0
   -9.8976   -7.1385   -4.3794 O   0  0  0  0  0  0  0  0  0  0  0  0
   -5.9669   -3.6426   -4.9059 O   0  0  0  0  0  0  0  0  0  0  0  0
   -6.0293   -3.8199   -2.1048 O   0  0  0  0  0  0  0  0  0  0  0  0
   -4.2831   -2.2052   -0.5764 O   0  0  0  0  0  0  0  0  0  0  0  0
   -3.8756   -4.2259    0.6777 O   0  0  0  0  0  0  0  0  0  0  0  0
   -6.1801   -1.3155    1.0296 O   0  0  0  0  0  0  0  0  0  0  0  0
   -5.6082   -5.1790    3.8432 O   0  0  0  0  0  0  0  0  0  0  0  0
   -2.8028   -6.7779    1.1641 O   0  0  0  0  0  0  0  0  0  0  0  0
   -8.3007   -2.5284   -5.2228 N   0  0  0  0  0  0  0  0  0  0  0  0
  1  2  1  0
  1 23  1  0
 26  1  1  0
  2  3  1  0
  2 33  1  0
  3  4  1  0
  3 24  1  0
  5  4  1  0
  4 25  1  0
  5  6  1  0
 23  5  1  0
  6 19  1  0
  8  7  1  0
  7 12  1  0
  7 21  1  0
  8  9  1  0
 28  8  1  0
  9 10  1  0
  9 27  1  0
 10 11  1  0
 10 26  1  0
 12 11  1  0
 11 20  1  0
 13 14  1  0
 13 28  1  0
 13 29  1  0
 14 15  1  0
 14 30  1  0
 15 16  1  0
 15 22  1  0
 16 17  1  0
 16 31  1  0
 17 18  1  0
 17 29  1  0
 18 32  1  0
M  CHG  5  19   1  20   1  21   1  22   1  33   1
M  END
$$$$
