6np5_ligand
     RDKit          3D

 33 35  0  0  0  0  0  0  0  0999 V2000
   -1.2861    4.2942   -4.7020 C   0  0  0  0  0  0  0  0  0  0  0  0
   -2.1605    5.2306   -5.3117 C   0  0  0  0  0  0  0  0  0  0  0  0
   -2.9767    5.9462   -4.3535 C   0  0  0  0  0  0  0  0  0  0  0  0
   -2.9754    5.6377   -2.9268 C   0  0  0  0  0  0  0  0  0  0  0  0
   -2.0648    4.5353   -2.4391 C   0  0  0  0  0  0  0  0  0  0  0  0
   -1.9563    4.2064   -1.1358 C   0  0  0  0  0  0  0  0  0  0  0  0
    3.0399    2.9204   -6.7517 C   0  0  0  0  0  0  0  0  0  0  0  0
    2.2318    4.0085   -7.2672 C   0  0  0  0  0  0  0  0  0  0  0  0
    1.0558    4.3196   -6.5889 C   0  0  0  0  0  0  0  0  0  0  0  0
    0.5627    3.5421   -5.5420 C   0  0  0  0  0  0  0  0  0  0  0  0
    1.3294    2.4914   -4.9171 C   0  0  0  0  0  0  0  0  0  0  0  0
    2.5637    2.1903   -5.6347 C   0  0  0  0  0  0  0  0  0  0  0  0
    2.9120    5.2836   -9.1680 C   0  0  0  0  0  0  0  0  0  0  0  0
    2.3749    6.3997   -9.8321 C   0  0  0  0  0  0  0  0  0  0  0  0
    3.0234    6.9631  -10.9376 C   0  0  0  0  0  0  0  0  0  0  0  0
    4.2423    6.3532  -11.4244 C   0  0  0  0  0  0  0  0  0  0  0  0
    4.8836    5.1960  -10.7420 C   0  0  0  0  0  0  0  0  0  0  0  0
    6.1037    4.5277  -11.2486 C   0  0  0  0  0  0  0  0  0  0  0  0
   -1.3885    3.1611   -0.5627 N   0  0  0  0  0  0  0  0  0  0  0  0
    0.8136    1.8898   -3.8058 N   0  0  0  0  0  0  0  0  0  0  0  0
    4.2392    2.5954   -7.3585 N   0  0  0  0  0  0  0  0  0  0  0  0
    2.5043    8.0767  -11.6670 N   0  0  0  0  0  0  0  0  0  0  0  0
   -1.3640    3.9595   -3.3325 O   0  0  0  0  0  0  0  0  0  0  0  0
   -3.7271    7.0427   -4.8496 O   0  0  0  0  0  0  0  0  0  0  0  0
   -3.7180    6.2621   -2.0350 O   0  0  0  0  0  0  0  0  0  0  0  0
   -0.6424    3.6919   -5.3567 O   0  0  0  0  0  0  0  0  0  0  0  0
    0.3513    5.3499   -6.9393 O   0  0  0  0  0  0  0  0  0  0  0  0
    2.3113    4.8797   -8.3242 O   0  0  0  0  0  0  0  0  0  0  0  0
    4.1542    4.7709   -9.6662 O   0  0  0  0  0  0  0  0  0  0  0  0
    1.2483    6.8994   -9.3524 O   0  0  0  0  0  0  0  0  0  0  0  0
    4.7801    6.9269  -12.5697 O   0  0  0  0  0  0  0  0  0  0  0  0
    6.8321    4.1130  -10.3257 O   0  0  0  0  0  0  0  0  0  0  0  0
   -2.2024    5.3963   -6.6644 N   0  0  0  0  0  0  0  0  0  0  0  0
  1  2  1  0
  1 23  1  0
 26  1  1  0
  2  3  1  0
  2 33  1  0
  3  4  1  0
  3 24  1  0
  5  4  1  0
  4 25  1  0
  5  6  1  0
 23  5  1  0
  6 19  1  0
  8  7  1  0
  7 12  1  0
  7 21  1  0
  8  9  1  0
 28  8  1  0
  9 10  1  0
  9 27  1  0
 10 11  1  0
 10 26  1  0
 12 11  1  0
 11 20  1  0
 13 14  1  0
 13 28  1  0
 13 29  1  0
 14 15  1  0
 14 30  1  0
 15 16  1  0
 15 22  1  0
 16 17  1  0
 16 31  1  0
 17 18  1  0
 17 29  1  0
 18 32  1  0
M  CHG  5  19   1  20   1  21   1  22   1  33   1
M  END
$$$$
