13_0


 31 34  0  0  0  0  0  0  0  0999 V2000
    9.4855    3.3914  -16.9715 H   0  0  0  0  0  0  0  0  0  0  0  0
   10.1917    4.1502  -17.0208 N   0  0  0  0  0  0  0  0  0  0  0  0
   10.5521    4.8688  -16.0123 C   0  0  0  0  0  0  0  0  0  0  0  0
   11.4801    5.8394  -16.1600 N   0  0  0  0  0  0  0  0  0  0  0  0
   11.8974    6.6145  -15.1575 C   0  0  0  0  0  0  0  0  0  0  0  0
   12.9163    7.6762  -15.3277 C   0  0  0  0  0  0  0  0  0  0  0  0
   11.3450    6.4030  -13.9124 C   0  0  0  0  0  0  0  0  0  0  0  0
   10.3908    5.4120  -13.7400 C   0  0  0  0  0  0  0  0  0  0  0  0
   10.0123    4.6624  -14.7958 N   0  0  0  0  0  0  0  0  0  0  0  0
    9.2942    3.9350  -14.6068 H   0  0  0  0  0  0  0  0  0  0  0  0
    9.7742    5.1135  -12.5469 O   0  0  0  0  0  0  0  0  0  0  0  0
    9.3351    5.8756  -11.4340 C   0  0  0  0  0  0  0  0  0  0  0  0
    8.0171    6.5092  -11.8940 C   0  0  0  0  0  0  0  0  0  0  0  0
    8.7901    4.8225  -10.5223 C   0  0  0  0  0  0  0  0  0  0  0  0
   10.2593    6.9038  -10.9393 C   0  0  0  0  0  0  0  0  0  0  0  0
   11.6200    6.5963  -11.5215 C   0  0  0  0  0  0  0  0  0  0  0  0
   11.8948    7.3222  -12.8533 C   0  0  0  0  0  0  0  0  0  0  0  0
   10.2837    7.3859   -9.6137 N   0  0  0  0  0  0  0  0  0  0  0  0
    9.5776    8.1789   -9.4475 H   0  0  0  0  0  0  0  0  0  0  0  0
    9.9337    6.5270   -8.5353 C   0  0  0  0  0  0  0  0  0  0  0  0
    9.5892    7.3704   -7.2869 C   0  0  0  0  0  0  0  0  0  0  0  0
   10.8399    7.9326   -6.8660 N   0  0  0  0  0  0  0  0  0  0  0  0
   11.7807    8.3837   -7.8586 C   0  0  0  0  0  0  0  0  0  0  0  0
   11.5300    8.0582   -9.2598 C   0  0  0  0  0  0  0  0  0  0  0  0
   11.2284    8.0833   -5.5004 C   0  0  0  0  0  0  0  0  0  0  0  0
   11.4741    6.8930   -4.8150 C   0  0  0  0  0  0  0  0  0  0  0  0
   11.8663    6.8718   -3.4926 C   0  0  0  0  0  0  0  0  0  0  0  0
   12.0069    8.1019   -2.8678 C   0  0  0  0  0  0  0  0  0  0  0  0
   11.7642    9.2743   -3.5465 C   0  0  0  0  0  0  0  0  0  0  0  0
   11.3677    9.3046   -4.8819 C   0  0  0  0  0  0  0  0  0  0  0  0
   11.1102   10.5772   -5.5656 C   0  0  0  0  0  0  0  0  0  0  0  0
  1  2  1  0  0  0
  2  3  2  0  0  0
  3  4  1  0  0  0
  4  5  2  0  0  0
  5  6  1  0  0  0
  5  7  1  0  0  0
  7  8  2  0  0  0
  8  9  1  0  0  0
  9 10  1  0  0  0
  8 11  1  0  0  0
 11 12  1  0  0  0
 12 13  1  0  0  0
 12 14  1  0  0  0
 12 15  1  0  0  0
 15 18  1  0  0  0
 18 19  1  0  0  0
 18 20  1  0  0  0
 20 21  1  0  0  0
 21 22  1  0  0  0
 22 25  1  0  0  0
 25 26  2  0  0  0
 26 27  1  0  0  0
 27 28  2  0  0  0
 28 29  1  0  0  0
 29 30  2  0  0  0
 30 31  1  0  0  0
 22 23  1  0  0  0
 23 24  1  0  0  0
 15 16  1  0  0  0
 16 17  1  0  0  0
  9  3  1  0  0  0
 24 18  1  0  0  0
 17  7  1  0  0  0
 30 25  1  0  0  0
M  CHG 1  18   1
M  END
> <minimizedAffinity>
-10.80477

$$$$
13_0


 31 34  0  0  0  0  0  0  0  0999 V2000
    6.5397    0.9420  -17.2164 H   0  0  0  0  0  0  0  0  0  0  0  0
    7.5267    1.2423  -17.3282 N   0  0  0  0  0  0  0  0  0  0  0  0
    8.1586    1.9795  -16.4793 C   0  0  0  0  0  0  0  0  0  0  0  0
    9.4453    2.3273  -16.6990 N   0  0  0  0  0  0  0  0  0  0  0  0
   10.1546    3.0842  -15.8599 C   0  0  0  0  0  0  0  0  0  0  0  0
   11.5658    3.4604  -16.1078 C   0  0  0  0  0  0  0  0  0  0  0  0
    9.5299    3.5268  -14.7136 C   0  0  0  0  0  0  0  0  0  0  0  0
    8.2095    3.1810  -14.4698 C   0  0  0  0  0  0  0  0  0  0  0  0
    7.5483    2.4122  -15.3594 N   0  0  0  0  0  0  0  0  0  0  0  0
    6.5617    2.1849  -15.1239 H   0  0  0  0  0  0  0  0  0  0  0  0
    7.4881    3.5645  -13.3629 O   0  0  0  0  0  0  0  0  0  0  0  0
    7.4394    4.7336  -12.5610 C   0  0  0  0  0  0  0  0  0  0  0  0
    6.6105    5.7304  -13.3791 C   0  0  0  0  0  0  0  0  0  0  0  0
    6.4229    4.3679  -11.5265 C   0  0  0  0  0  0  0  0  0  0  0  0
    8.7305    5.3215  -12.1821 C   0  0  0  0  0  0  0  0  0  0  0  0
    9.7882    4.2707  -12.4313 C   0  0  0  0  0  0  0  0  0  0  0  0
   10.4231    4.3609  -13.8331 C   0  0  0  0  0  0  0  0  0  0  0  0
    8.9440    6.1072  -11.0300 N   0  0  0  0  0  0  0  0  0  0  0  0
    8.0269    6.4294  -10.5716 H   0  0  0  0  0  0  0  0  0  0  0  0
    9.5925    5.5474   -9.8945 C   0  0  0  0  0  0  0  0  0  0  0  0
    9.2987    6.4111   -8.6470 C   0  0  0  0  0  0  0  0  0  0  0  0
   10.0183    7.6323   -8.8671 N   0  0  0  0  0  0  0  0  0  0  0  0
   10.0675    8.1936  -10.1923 C   0  0  0  0  0  0  0  0  0  0  0  0
    9.5709    7.3953  -11.3096 C   0  0  0  0  0  0  0  0  0  0  0  0
   10.7046    8.3506   -7.8417 C   0  0  0  0  0  0  0  0  0  0  0  0
    9.8944    8.8644   -6.8284 C   0  0  0  0  0  0  0  0  0  0  0  0
   10.4082    9.5741   -5.7628 C   0  0  0  0  0  0  0  0  0  0  0  0
   11.7829    9.7560   -5.7442 C   0  0  0  0  0  0  0  0  0  0  0  0
   12.5795    9.2480   -6.7449 C   0  0  0  0  0  0  0  0  0  0  0  0
   12.0687    8.5302   -7.8245 C   0  0  0  0  0  0  0  0  0  0  0  0
   12.9530    8.0135   -8.8753 C   0  0  0  0  0  0  0  0  0  0  0  0
  1  2  1  0  0  0
  2  3  2  0  0  0
  3  4  1  0  0  0
  4  5  2  0  0  0
  5  6  1  0  0  0
  5  7  1  0  0  0
  7  8  2  0  0  0
  8  9  1  0  0  0
  9 10  1  0  0  0
  8 11  1  0  0  0
 11 12  1  0  0  0
 12 13  1  0  0  0
 12 14  1  0  0  0
 12 15  1  0  0  0
 15 18  1  0  0  0
 18 19  1  0  0  0
 18 20  1  0  0  0
 20 21  1  0  0  0
 21 22  1  0  0  0
 22 25  1  0  0  0
 25 26  2  0  0  0
 26 27  1  0  0  0
 27 28  2  0  0  0
 28 29  1  0  0  0
 29 30  2  0  0  0
 30 31  1  0  0  0
 22 23  1  0  0  0
 23 24  1  0  0  0
 15 16  1  0  0  0
 16 17  1  0  0  0
  9  3  1  0  0  0
 24 18  1  0  0  0
 17  7  1  0  0  0
 30 25  1  0  0  0
M  CHG 1  18   1
M  END
> <minimizedAffinity>
-8.95302

$$$$
13_0


 31 34  0  0  0  0  0  0  0  0999 V2000
    6.3097   -0.7531  -12.5432 H   0  0  0  0  0  0  0  0  0  0  0  0
    6.4698   -0.9140  -13.5558 N   0  0  0  0  0  0  0  0  0  0  0  0
    7.2563   -0.1988  -14.2860 C   0  0  0  0  0  0  0  0  0  0  0  0
    7.4100   -0.4743  -15.5995 N   0  0  0  0  0  0  0  0  0  0  0  0
    8.2092    0.2247  -16.4075 C   0  0  0  0  0  0  0  0  0  0  0  0
    8.3729   -0.0845  -17.8469 C   0  0  0  0  0  0  0  0  0  0  0  0
    8.9083    1.2793  -15.8603 C   0  0  0  0  0  0  0  0  0  0  0  0
    8.7641    1.5785  -14.5141 C   0  0  0  0  0  0  0  0  0  0  0  0
    7.9392    0.8317  -13.7516 N   0  0  0  0  0  0  0  0  0  0  0  0
    7.8713    1.1023  -12.7502 H   0  0  0  0  0  0  0  0  0  0  0  0
    9.4100    2.6042  -13.8634 O   0  0  0  0  0  0  0  0  0  0  0  0
    9.8049    3.9190  -14.2207 C   0  0  0  0  0  0  0  0  0  0  0  0
    8.5178    4.7472  -14.1337 C   0  0  0  0  0  0  0  0  0  0  0  0
   10.4827    4.3970  -12.9760 C   0  0  0  0  0  0  0  0  0  0  0  0
   10.4352    4.0780  -15.5373 C   0  0  0  0  0  0  0  0  0  0  0  0
   10.8546    2.7011  -15.9990 C   0  0  0  0  0  0  0  0  0  0  0  0
    9.7877    1.9906  -16.8551 C   0  0  0  0  0  0  0  0  0  0  0  0
   11.3376    5.1093  -15.8724 N   0  0  0  0  0  0  0  0  0  0  0  0
   11.3627    5.8937  -15.1382 H   0  0  0  0  0  0  0  0  0  0  0  0
   12.7296    4.8348  -15.9736 C   0  0  0  0  0  0  0  0  0  0  0  0
   13.5296    6.1542  -15.8856 C   0  0  0  0  0  0  0  0  0  0  0  0
   13.2408    6.8421  -17.1107 N   0  0  0  0  0  0  0  0  0  0  0  0
   11.9074    6.7902  -17.6521 C   0  0  0  0  0  0  0  0  0  0  0  0
   10.9464    5.8649  -17.0584 C   0  0  0  0  0  0  0  0  0  0  0  0
   14.2029    7.5950  -17.8496 C   0  0  0  0  0  0  0  0  0  0  0  0
   14.2968    8.9441  -17.5058 C   0  0  0  0  0  0  0  0  0  0  0  0
   15.1849    9.8013  -18.1219 C   0  0  0  0  0  0  0  0  0  0  0  0
   15.9897    9.2549  -19.1104 C   0  0  0  0  0  0  0  0  0  0  0  0
   15.8950    7.9238  -19.4472 C   0  0  0  0  0  0  0  0  0  0  0  0
   15.0008    7.0514  -18.8300 C   0  0  0  0  0  0  0  0  0  0  0  0
   14.9258    5.6405  -19.2261 C   0  0  0  0  0  0  0  0  0  0  0  0
  1  2  1  0  0  0
  2  3  2  0  0  0
  3  4  1  0  0  0
  4  5  2  0  0  0
  5  6  1  0  0  0
  5  7  1  0  0  0
  7  8  2  0  0  0
  8  9  1  0  0  0
  9 10  1  0  0  0
  8 11  1  0  0  0
 11 12  1  0  0  0
 12 13  1  0  0  0
 12 14  1  0  0  0
 12 15  1  0  0  0
 15 18  1  0  0  0
 18 19  1  0  0  0
 18 20  1  0  0  0
 20 21  1  0  0  0
 21 22  1  0  0  0
 22 25  1  0  0  0
 25 26  2  0  0  0
 26 27  1  0  0  0
 27 28  2  0  0  0
 28 29  1  0  0  0
 29 30  2  0  0  0
 30 31  1  0  0  0
 22 23  1  0  0  0
 23 24  1  0  0  0
 15 16  1  0  0  0
 16 17  1  0  0  0
  9  3  1  0  0  0
 24 18  1  0  0  0
 17  7  1  0  0  0
 30 25  1  0  0  0
M  CHG 1  18   1
M  END
> <minimizedAffinity>
-8.72973

$$$$
13_0


 31 34  0  0  0  0  0  0  0  0999 V2000
    2.5451   -0.7661  -12.7354 H   0  0  0  0  0  0  0  0  0  0  0  0
    2.8013   -0.9295  -13.7276 N   0  0  0  0  0  0  0  0  0  0  0  0
    3.8281   -0.4044  -14.3050 C   0  0  0  0  0  0  0  0  0  0  0  0
    4.0929   -0.6679  -15.6032 N   0  0  0  0  0  0  0  0  0  0  0  0
    5.1387   -0.1592  -16.2569 C   0  0  0  0  0  0  0  0  0  0  0  0
    5.4226   -0.4540  -17.6806 C   0  0  0  0  0  0  0  0  0  0  0  0
    5.9845    0.6766  -15.5595 C   0  0  0  0  0  0  0  0  0  0  0  0
    5.7300    0.9599  -14.2262 C   0  0  0  0  0  0  0  0  0  0  0  0
    4.6544    0.4124  -13.6237 N   0  0  0  0  0  0  0  0  0  0  0  0
    4.5142    0.6601  -12.6239 H   0  0  0  0  0  0  0  0  0  0  0  0
    6.5034    1.7773  -13.4348 O   0  0  0  0  0  0  0  0  0  0  0  0
    7.2435    2.9673  -13.6548 C   0  0  0  0  0  0  0  0  0  0  0  0
    6.1895    4.0801  -13.6796 C   0  0  0  0  0  0  0  0  0  0  0  0
    7.8358    3.2275  -12.3062 C   0  0  0  0  0  0  0  0  0  0  0  0
    8.0699    3.0093  -14.8678 C   0  0  0  0  0  0  0  0  0  0  0  0
    8.2117    1.5867  -15.3590 C   0  0  0  0  0  0  0  0  0  0  0  0
    7.1363    1.1836  -16.3872 C   0  0  0  0  0  0  0  0  0  0  0  0
    9.2280    3.8005  -15.0193 N   0  0  0  0  0  0  0  0  0  0  0  0
    9.2809    4.6001  -14.3032 H   0  0  0  0  0  0  0  0  0  0  0  0
   10.5150    3.2258  -14.8283 C   0  0  0  0  0  0  0  0  0  0  0  0
   11.5555    4.3434  -14.5897 C   0  0  0  0  0  0  0  0  0  0  0  0
   11.6776    5.0087  -15.8546 N   0  0  0  0  0  0  0  0  0  0  0  0
   10.5015    5.2171  -16.6590 C   0  0  0  0  0  0  0  0  0  0  0  0
    9.2596    4.5562  -16.2677 C   0  0  0  0  0  0  0  0  0  0  0  0
   12.9109    5.4934  -16.3862 C   0  0  0  0  0  0  0  0  0  0  0  0
   13.5923    4.6047  -17.2187 C   0  0  0  0  0  0  0  0  0  0  0  0
   14.7927    4.9282  -17.8164 C   0  0  0  0  0  0  0  0  0  0  0  0
   15.2977    6.1919  -17.5491 C   0  0  0  0  0  0  0  0  0  0  0  0
   14.6234    7.0663  -16.7277 C   0  0  0  0  0  0  0  0  0  0  0  0
   13.4107    6.7475  -16.1201 C   0  0  0  0  0  0  0  0  0  0  0  0
   12.7289    7.7066  -15.2435 C   0  0  0  0  0  0  0  0  0  0  0  0
  1  2  1  0  0  0
  2  3  2  0  0  0
  3  4  1  0  0  0
  4  5  2  0  0  0
  5  6  1  0  0  0
  5  7  1  0  0  0
  7  8  2  0  0  0
  8  9  1  0  0  0
  9 10  1  0  0  0
  8 11  1  0  0  0
 11 12  1  0  0  0
 12 13  1  0  0  0
 12 14  1  0  0  0
 12 15  1  0  0  0
 15 18  1  0  0  0
 18 19  1  0  0  0
 18 20  1  0  0  0
 20 21  1  0  0  0
 21 22  1  0  0  0
 22 25  1  0  0  0
 25 26  2  0  0  0
 26 27  1  0  0  0
 27 28  2  0  0  0
 28 29  1  0  0  0
 29 30  2  0  0  0
 30 31  1  0  0  0
 22 23  1  0  0  0
 23 24  1  0  0  0
 15 16  1  0  0  0
 16 17  1  0  0  0
  9  3  1  0  0  0
 24 18  1  0  0  0
 17  7  1  0  0  0
 30 25  1  0  0  0
M  CHG 1  18   1
M  END
> <minimizedAffinity>
-7.85300

$$$$
