6np5_ligand
     RDKit          3D

 75 77  0  0  0  0  0  0  0  0999 V2000
    2.8584   -0.0772    0.1695 C   0  0  0  0  0  0  0  0  0  0  0  0
    2.9669    1.0090    1.2712 C   0  0  0  0  0  0  0  0  0  0  0  0
    4.0775    2.0228    0.9382 C   0  0  0  0  0  0  0  0  0  0  0  0
    5.2388    1.3631    0.1701 C   0  0  0  0  0  0  0  0  0  0  0  0
    5.3068   -0.1534    0.4542 C   0  0  0  0  0  0  0  0  0  0  0  0
    6.5171   -0.8335   -0.2546 C   0  0  0  0  0  0  0  0  0  0  0  0
   -1.5699   -2.9517   -1.2937 C   0  0  0  0  0  0  0  0  0  0  0  0
   -1.6261   -1.5978   -0.5147 C   0  0  0  0  0  0  0  0  0  0  0  0
   -0.3452   -0.7279   -0.7245 C   0  0  0  0  0  0  0  0  0  0  0  0
    1.0206   -1.4997   -0.5767 C   0  0  0  0  0  0  0  0  0  0  0  0
    0.7877   -3.0239   -0.3719 C   0  0  0  0  0  0  0  0  0  0  0  0
   -0.1672   -3.5608   -1.4394 C   0  0  0  0  0  0  0  0  0  0  0  0
   -3.6657   -0.2979   -0.0137 C   0  0  0  0  0  0  0  0  0  0  0  0
   -5.0292    0.0008   -0.7068 C   0  0  0  0  0  0  0  0  0  0  0  0
   -5.9598    0.8402    0.1943 C   0  0  0  0  0  0  0  0  0  0  0  0
   -5.2080    2.0728    0.7224 C   0  0  0  0  0  0  0  0  0  0  0  0
   -3.8813    1.6254    1.3812 C   0  0  0  0  0  0  0  0  0  0  0  0
   -3.0972    2.8278    1.9239 C   0  0  0  0  0  0  0  0  0  0  0  0
    7.8430   -0.4970    0.3361 N   0  0  0  0  0  0  0  0  0  0  0  0
    2.0937   -3.7552   -0.4297 N   0  0  0  0  0  0  0  0  0  0  0  0
   -2.2195   -2.8187   -2.6446 N   0  0  0  0  0  0  0  0  0  0  0  0
   -7.1339    1.3171   -0.6252 N   0  0  0  0  0  0  0  0  0  0  0  0
    4.0770   -0.8399    0.0401 O   0  0  0  0  0  0  0  0  0  0  0  0
    4.5226    2.5650    2.1763 O   0  0  0  0  0  0  0  0  0  0  0  0
    4.9844    1.5179   -1.2266 O   0  0  0  0  0  0  0  0  0  0  0  0
    1.8067   -1.0065    0.5305 O   0  0  0  0  0  0  0  0  0  0  0  0
   -0.3559    0.4062    0.1697 O   0  0  0  0  0  0  0  0  0  0  0  0
   -2.8073   -0.9227   -0.9935 O   0  0  0  0  0  0  0  0  0  0  0  0
   -3.0410    0.8986    0.4513 O   0  0  0  0  0  0  0  0  0  0  0  0
   -4.8106    0.6814   -1.9586 O   0  0  0  0  0  0  0  0  0  0  0  0
   -4.9426    2.9282   -0.4060 O   0  0  0  0  0  0  0  0  0  0  0  0
   -3.9378    3.5624    2.7893 O   0  0  0  0  0  0  0  0  0  0  0  0
    1.6717    1.7298    1.5044 N   0  0  0  0  0  0  0  0  0  0  0  0
    2.6287    0.3953   -0.7932 H   0  0  0  0  0  0  0  0  0  0  0  0
    3.1680    0.5154    2.2310 H   0  0  0  0  0  0  0  0  0  0  0  0
    3.6679    2.8503    0.3458 H   0  0  0  0  0  0  0  0  0  0  0  0
    6.1920    1.8451    0.4110 H   0  0  0  0  0  0  0  0  0  0  0  0
    5.4065   -0.3222    1.5337 H   0  0  0  0  0  0  0  0  0  0  0  0
    6.5633   -0.5765   -1.3177 H   0  0  0  0  0  0  0  0  0  0  0  0
    6.4227   -1.9229   -0.1847 H   0  0  0  0  0  0  0  0  0  0  0  0
   -2.2216   -3.6553   -0.7609 H   0  0  0  0  0  0  0  0  0  0  0  0
   -1.7337   -1.8100    0.5575 H   0  0  0  0  0  0  0  0  0  0  0  0
   -0.3864   -0.3077   -1.7372 H   0  0  0  0  0  0  0  0  0  0  0  0
    1.5872   -1.3745   -1.5101 H   0  0  0  0  0  0  0  0  0  0  0  0
    0.4072   -3.2177    0.6378 H   0  0  0  0  0  0  0  0  0  0  0  0
   -0.2421   -4.6533   -1.3704 H   0  0  0  0  0  0  0  0  0  0  0  0
    0.2457   -3.3456   -2.4339 H   0  0  0  0  0  0  0  0  0  0  0  0
   -3.8226   -0.9846    0.8277 H   0  0  0  0  0  0  0  0  0  0  0  0
   -5.5126   -0.9468   -0.9700 H   0  0  0  0  0  0  0  0  0  0  0  0
   -6.3599    0.2393    1.0171 H   0  0  0  0  0  0  0  0  0  0  0  0
   -5.8505    2.6176    1.4238 H   0  0  0  0  0  0  0  0  0  0  0  0
   -4.1163    0.9626    2.2260 H   0  0  0  0  0  0  0  0  0  0  0  0
   -2.7463    3.4735    1.1123 H   0  0  0  0  0  0  0  0  0  0  0  0
   -2.2148    2.4844    2.4744 H   0  0  0  0  0  0  0  0  0  0  0  0
    7.9445   -0.7381    1.3346 H   0  0  0  0  0  0  0  0  0  0  0  0
    8.1373    0.4867    0.2213 H   0  0  0  0  0  0  0  0  0  0  0  0
    8.5888   -1.0380   -0.1389 H   0  0  0  0  0  0  0  0  0  0  0  0
    2.5450   -3.7895   -1.3580 H   0  0  0  0  0  0  0  0  0  0  0  0
    2.7822   -3.3249    0.2132 H   0  0  0  0  0  0  0  0  0  0  0  0
    2.0154   -4.7406   -0.1159 H   0  0  0  0  0  0  0  0  0  0  0  0
   -2.6070   -3.7115   -2.9997 H   0  0  0  0  0  0  0  0  0  0  0  0
   -3.0378   -2.1807   -2.5721 H   0  0  0  0  0  0  0  0  0  0  0  0
   -1.6527   -2.4260   -3.4110 H   0  0  0  0  0  0  0  0  0  0  0  0
   -7.6976    0.5616   -1.0415 H   0  0  0  0  0  0  0  0  0  0  0  0
   -7.7821    1.9246   -0.1000 H   0  0  0  0  0  0  0  0  0  0  0  0
   -6.7862    1.8908   -1.4154 H   0  0  0  0  0  0  0  0  0  0  0  0
    5.0183    3.3987    2.0268 H   0  0  0  0  0  0  0  0  0  0  0  0
    5.4033    2.3483   -1.5477 H   0  0  0  0  0  0  0  0  0  0  0  0
   -1.2533    0.8136    0.0749 H   0  0  0  0  0  0  0  0  0  0  0  0
   -4.4180    1.5631   -1.7700 H   0  0  0  0  0  0  0  0  0  0  0  0
   -4.8431    3.8427   -0.0596 H   0  0  0  0  0  0  0  0  0  0  0  0
   -3.4396    4.3095    3.1771 H   0  0  0  0  0  0  0  0  0  0  0  0
    1.6587    2.1315    2.4562 H   0  0  0  0  0  0  0  0  0  0  0  0
    1.5078    2.5145    0.8592 H   0  0  0  0  0  0  0  0  0  0  0  0
    0.8592    1.0928    1.4040 H   0  0  0  0  0  0  0  0  0  0  0  0
  1  2  1  0
  1 23  1  0
 26  1  1  0
  2  3  1  0
  2 33  1  0
  3  4  1  0
  3 24  1  0
  5  4  1  0
  4 25  1  0
  5  6  1  0
 23  5  1  0
  6 19  1  0
  8  7  1  0
  7 12  1  0
  7 21  1  0
  8  9  1  0
 28  8  1  0
  9 10  1  0
  9 27  1  0
 10 11  1  0
 10 26  1  0
 12 11  1  0
 11 20  1  0
 13 14  1  0
 13 28  1  0
 13 29  1  0
 14 15  1  0
 14 30  1  0
 15 16  1  0
 15 22  1  0
 16 17  1  0
 16 31  1  0
 17 18  1  0
 17 29  1  0
 18 32  1  0
  1 34  1  0
  2 35  1  0
  3 36  1  0
  4 37  1  0
  5 38  1  0
  6 39  1  0
  6 40  1  0
  7 41  1  0
  8 42  1  0
  9 43  1  0
 10 44  1  0
 11 45  1  0
 12 46  1  0
 12 47  1  0
 13 48  1  0
 14 49  1  0
 15 50  1  0
 16 51  1  0
 17 52  1  0
 18 53  1  0
 18 54  1  0
 19 55  1  0
 19 56  1  0
 19 57  1  0
 20 58  1  0
 20 59  1  0
 20 60  1  0
 21 61  1  0
 21 62  1  0
 21 63  1  0
 22 64  1  0
 22 65  1  0
 22 66  1  0
 24 67  1  0
 25 68  1  0
 27 69  1  0
 30 70  1  0
 31 71  1  0
 32 72  1  0
 33 73  1  0
 33 74  1  0
 33 75  1  0
M  CHG  5  19   1  20   1  21   1  22   1  33   1
M  END
$$$$
