6np5_ligand
  -I-interpret- 

 75 77  0  0  0  0  0  0  0  0999 V2000
  107.9070  -18.4270   -7.8090 C   0  0  0  0  0
  106.5780  -18.9940   -7.3360 C   0  0  0  0  0
  106.7230  -20.3650   -6.7940 C   0  0  0  0  0
  107.3160  -21.2890   -7.8210 C   0  0  0  0  0
  108.5940  -20.6810   -8.4230 C   0  0  0  0  0
  109.0600  -21.4520   -9.6270 C   0  0  0  0  0
  111.9180  -15.7780   -5.8000 C   0  0  0  0  0
  111.3820  -15.6340   -7.2250 C   0  0  0  0  0
  110.0210  -16.3280   -7.3600 C   0  0  0  0  0
  110.0680  -17.8050   -6.9180 C   0  0  0  0  0
  110.7490  -17.9770   -5.5550 C   0  0  0  0  0
  112.0960  -17.2600   -5.4700 C   0  0  0  0  0
  112.1070  -13.6740   -8.3860 C   0  0  0  0  0
  112.2150  -12.2040   -7.9970 C   0  0  0  0  0
  110.8940  -11.5080   -8.1560 C   0  0  0  0  0
  110.4300  -11.6660   -9.5640 C   0  0  0  0  0
  110.3230  -13.1410   -9.9420 C   0  0  0  0  0
  109.8460  -13.3870  -11.3290 C   0  0  0  0  0
  110.2510  -20.8140  -10.1710 N   0  3  0  0  0
  110.9130  -19.4150   -5.3020 N   0  3  0  0  0
  113.1940  -15.0790   -5.6630 N   0  3  0  0  0
  111.0080  -10.0470   -7.8080 N   0  3  0  0  0
  108.3650  -19.3190   -8.8860 O   0  0  0  0  0
  105.3980  -20.8340   -6.3730 O   0  0  0  0  0
  107.6680  -22.5720   -7.2850 O   0  0  0  0  0
  108.7960  -18.4200   -6.7470 O   0  0  0  0  0
  109.6200  -16.2610   -8.7160 O   0  0  0  0  0
  111.1950  -14.2650   -7.5130 O   0  0  0  0  0
  111.6470  -13.7870   -9.7620 O   0  0  0  0  0
  112.6200  -12.1780   -6.6470 O   0  0  0  0  0
  109.1270  -11.0850   -9.7470 O   0  0  0  0  0
  110.6610  -12.7580  -12.2450 O   0  0  0  0  0
  106.0380  -18.0630   -6.2890 N   0  3  0  0  0
  107.8240  -17.4029   -8.1728 H   0  0  0  0  0
  105.8914  -19.0697   -8.1792 H   0  0  0  0  0
  107.4017  -20.3552   -5.9412 H   0  0  0  0  0
  106.5415  -21.4201   -8.5767 H   0  0  0  0  0
  109.3373  -20.7105   -7.6263 H   0  0  0  0  0
  108.2735  -21.4635  -10.3816 H   0  0  0  0  0
  109.2930  -22.4769   -9.3381 H   0  0  0  0  0
  111.2045  -15.3348   -5.1053 H   0  0  0  0  0
  112.0987  -16.0872   -7.9099 H   0  0  0  0  0
  109.3122  -15.8168   -6.7086 H   0  0  0  0  0
  110.6126  -18.2738   -7.7376 H   0  0  0  0  0
  110.1171  -17.5194   -4.7938 H   0  0  0  0  0
  112.4925  -17.3583   -4.4595 H   0  0  0  0  0
  112.7871  -17.7071   -6.1846 H   0  0  0  0  0
  113.0743  -14.1716   -8.3171 H   0  0  0  0  0
  112.9279  -11.6856   -8.6382 H   0  0  0  0  0
  110.1715  -11.9572   -7.4746 H   0  0  0  0  0
  111.1640  -11.1621  -10.1928 H   0  0  0  0  0
  109.5703  -13.5700   -9.2806 H   0  0  0  0  0
  108.8349  -12.9921  -11.4284 H   0  0  0  0  0
  109.8628  -14.4597  -11.5216 H   0  0  0  0  0
  110.5706  -21.3340  -10.9882 H   0  0  0  0  0
  110.0286  -19.8561  -10.4417 H   0  0  0  0  0
  110.9850  -20.8067   -9.4627 H   0  0  0  0  0
  111.3653  -19.5505   -4.3979 H   0  0  0  0  0
  109.9974  -19.8646   -5.2963 H   0  0  0  0  0
  111.4897  -19.8247   -6.0368 H   0  0  0  0  0
  113.5374  -15.1846   -4.7084 H   0  0  0  0  0
  113.8701  -15.4771   -6.3148 H   0  0  0  0  0
  113.0620  -14.0891   -5.8706 H   0  0  0  0  0
  110.0990   -9.5991   -7.9242 H   0  0  0  0  0
  111.3137   -9.9523   -6.8395 H   0  0  0  0  0
  111.6882   -9.6037   -8.4254 H   0  0  0  0  0
  105.0391  -20.2303   -5.7185 H   0  0  0  0  0
  106.8897  -22.9810   -6.8996 H   0  0  0  0  0
  108.7682  -16.6917   -8.8183 H   0  0  0  0  0
  112.7019  -11.2668   -6.3561 H   0  0  0  0  0
  108.8520  -11.1998  -10.6596 H   0  0  0  0  0
  110.3358  -12.9295  -13.1318 H   0  0  0  0  0
  105.9464  -17.1266   -6.6830 H   0  0  0  0  0
  105.1240  -18.3941   -5.9801 H   0  0  0  0  0
  106.6780  -18.0381   -5.4952 H   0  0  0  0  0
  1  2  1  0  0  0
  1 23  1  0  0  0
 26  1  1  0  0  0
  2  3  1  0  0  0
  2 33  1  0  0  0
  3  4  1  0  0  0
  3 24  1  0  0  0
  5  4  1  0  0  0
  4 25  1  0  0  0
  5  6  1  0  0  0
 23  5  1  0  0  0
  6 19  1  0  0  0
  8  7  1  0  0  0
  7 12  1  0  0  0
  7 21  1  0  0  0
  8  9  1  0  0  0
 28  8  1  0  0  0
  9 10  1  0  0  0
  9 27  1  0  0  0
 10 11  1  0  0  0
 10 26  1  0  0  0
 12 11  1  0  0  0
 11 20  1  0  0  0
 13 14  1  0  0  0
 13 28  1  0  0  0
 13 29  1  0  0  0
 14 15  1  0  0  0
 14 30  1  0  0  0
 15 16  1  0  0  0
 15 22  1  0  0  0
 16 17  1  0  0  0
 16 31  1  0  0  0
 17 18  1  0  0  0
 17 29  1  0  0  0
 18 32  1  0  0  0
  1 34  1  0  0  0
  2 35  1  0  0  0
  3 36  1  0  0  0
  4 37  1  0  0  0
  5 38  1  0  0  0
  6 39  1  0  0  0
  6 40  1  0  0  0
  7 41  1  0  0  0
  8 42  1  0  0  0
  9 43  1  0  0  0
 10 44  1  0  0  0
 11 45  1  0  0  0
 12 46  1  0  0  0
 12 47  1  0  0  0
 13 48  1  0  0  0
 14 49  1  0  0  0
 15 50  1  0  0  0
 16 51  1  0  0  0
 17 52  1  0  0  0
 18 53  1  0  0  0
 18 54  1  0  0  0
 19 55  1  0  0  0
 19 56  1  0  0  0
 19 57  1  0  0  0
 20 58  1  0  0  0
 20 59  1  0  0  0
 20 60  1  0  0  0
 21 61  1  0  0  0
 21 62  1  0  0  0
 21 63  1  0  0  0
 22 64  1  0  0  0
 22 65  1  0  0  0
 22 66  1  0  0  0
 24 67  1  0  0  0
 25 68  1  0  0  0
 27 69  1  0  0  0
 30 70  1  0  0  0
 31 71  1  0  0  0
 32 72  1  0  0  0
 33 73  1  0  0  0
 33 74  1  0  0  0
 33 75  1  0  0  0
M  END
$$$$
