6np5_ligand
     RDKit          3D

 33 35  0  0  0  0  0  0  0  0999 V2000
    1.3578  -11.6171   -0.7002 C   0  0  2  0  0  0  0  0  0  0  0  0
    0.3117  -11.9984    0.4734 C   0  0  1  0  0  0  0  0  0  0  0  0
    1.1173  -12.1181    1.7758 C   0  0  2  0  0  0  0  0  0  0  0  0
    2.2684  -13.1227    1.6663 C   0  0  1  0  0  0  0  0  0  0  0  0
    3.1609  -12.6442    0.4602 C   0  0  1  0  0  0  0  0  0  0  0  0
    4.3814  -13.7132    0.2191 C   0  0  0  0  0  0  0  0  0  0  0  0
    3.8317   -7.5884   -2.6854 C   0  0  1  0  0  0  0  0  0  0  0  0
    4.3550   -8.5728   -1.6661 C   0  0  1  0  0  0  0  0  0  0  0  0
    3.5272   -9.8063   -1.7749 C   0  0  2  0  0  0  0  0  0  0  0  0
    2.1233   -9.5133   -1.4496 C   0  0  1  0  0  0  0  0  0  0  0  0
    1.5649   -8.5873   -2.3926 C   0  0  2  0  0  0  0  0  0  0  0  0
    2.3756   -7.3007   -2.2218 C   0  0  0  0  0  0  0  0  0  0  0  0
    6.7946   -9.2557   -1.6791 C   0  0  1  0  0  0  0  0  0  0  0  0
    7.3392  -10.2187   -0.6622 C   0  0  1  0  0  0  0  0  0  0  0  0
    8.3506   -9.7697    0.3059 C   0  0  2  0  0  0  0  0  0  0  0  0
    9.1594   -8.5195    0.1100 C   0  0  1  0  0  0  0  0  0  0  0  0
    8.3019   -7.4909   -0.6971 C   0  0  1  0  0  0  0  0  0  0  0  0
    9.2517   -6.2716   -1.1732 C   0  0  0  0  0  0  0  0  0  0  0  0
    5.1962  -13.0873   -0.8862 N   0  0  0  0  0  0  0  0  0  0  0  0
    0.1790   -8.3584   -2.2000 N   0  0  0  0  0  0  0  0  0  0  0  0
    4.7169   -6.4313   -2.8172 N   0  0  0  0  0  0  0  0  0  0  0  0
    8.8846  -10.6762    1.3305 N   0  0  0  0  0  0  0  0  0  0  0  0
    2.4353  -12.5270   -0.7412 O   0  0  0  0  0  0  0  0  0  0  0  0
    0.1242  -12.6214    2.7881 O   0  0  0  0  0  0  0  0  0  0  0  0
    3.0003  -13.1446    2.9068 O   0  0  0  0  0  0  0  0  0  0  0  0
    1.6467  -10.2998   -0.6057 O   0  0  0  0  0  0  0  0  0  0  0  0
    4.0136  -10.7334   -0.8925 O   0  0  0  0  0  0  0  0  0  0  0  0
    5.7310   -9.0133   -1.8415 O   0  0  0  0  0  0  0  0  0  0  0  0
    7.5433   -8.0017   -1.7315 O   0  0  0  0  0  0  0  0  0  0  0  0
    6.5781  -11.2201   -0.4585 O   0  0  0  0  0  0  0  0  0  0  0  0
    9.5434   -7.8716    1.3182 O   0  0  0  0  0  0  0  0  0  0  0  0
    9.4400   -6.4659   -2.5795 O   0  0  0  0  0  0  0  0  0  0  0  0
   -0.8613  -10.9623    0.6231 N   0  0  0  0  0  0  0  0  0  0  0  0
  1  2  1  0
  1 23  1  0
  1 26  1  1
  2  3  1  0
  2 33  1  1
  3  4  1  0
  3 24  1  1
  5  4  1  0
  4 25  1  1
  5  6  1  6
 23  5  1  0
  6 19  1  0
  8  7  1  0
  7 12  1  0
  7 21  1  1
  8  9  1  0
  8 28  1  6
  9 10  1  0
  9 27  1  1
 10 11  1  0
 10 26  1  6
 12 11  1  0
 11 20  1  1
 13 14  1  0
 13 28  1  1
 13 29  1  0
 14 15  1  0
 14 30  1  1
 15 16  1  0
 15 22  1  6
 16 17  1  0
 16 31  1  1
 17 18  1  6
 17 29  1  0
 18 32  1  0
M  CHG  5  19   1  20   1  21   1  22   1  33   1
M  END
$$$$
