6np5_ligand
     RDKit          3D

 33 35  0  0  0  0  0  0  0  0999 V2000
   -0.4608   -9.3469   -0.1596 C   0  0  2  0  0  0  0  0  0  0  0  0
   -1.8986   -9.6645   -0.0135 C   0  0  1  0  0  0  0  0  0  0  0  0
   -2.1192  -11.1205    0.9315 C   0  0  2  0  0  0  0  0  0  0  0  0
   -0.8036  -12.2277    1.6081 C   0  0  1  0  0  0  0  0  0  0  0  0
    0.9044  -11.5953    1.6727 C   0  0  1  0  0  0  0  0  0  0  0  0
    1.7558  -12.1712    2.1724 C   0  0  0  0  0  0  0  0  0  0  0  0
    3.0676   -4.8601   -1.4085 C   0  0  1  0  0  0  0  0  0  0  0  0
    3.2812   -6.3236   -1.1418 C   0  0  1  0  0  0  0  0  0  0  0  0
    2.1642   -7.6663   -0.9631 C   0  0  1  0  0  0  0  0  0  0  0  0
    0.7710   -7.3359   -1.2812 C   0  0  2  0  0  0  0  0  0  0  0  0
    0.3828   -5.8668   -1.9851 C   0  0  1  0  0  0  0  0  0  0  0  0
    1.4695   -4.6298   -1.7946 C   0  0  0  0  0  0  0  0  0  0  0  0
    5.4016   -6.8761   -0.5349 C   0  0  1  0  0  0  0  0  0  0  0  0
    5.8165   -8.2952   -1.4623 C   0  0  1  0  0  0  0  0  0  0  0  0
    7.6410   -8.3018   -0.7097 C   0  0  2  0  0  0  0  0  0  0  0  0
    8.5664   -7.3686    0.6537 C   0  0  2  0  0  0  0  0  0  0  0  0
    7.2097   -6.5661    1.0266 C   0  0  1  0  0  0  0  0  0  0  0  0
    8.2131   -5.5308    2.1140 C   0  0  0  0  0  0  0  0  0  0  0  0
    1.5601  -12.5388    3.3191 N   0  0  0  0  0  0  0  0  0  0  0  0
   -0.5817   -5.9129   -3.1759 N   0  0  0  0  0  0  0  0  0  0  0  0
    3.8242   -3.9692   -1.2196 N   0  0  0  0  0  0  0  0  0  0  0  0
    9.1278   -8.7106   -0.7820 N   0  0  0  0  0  0  0  0  0  0  0  0
    1.0543  -10.3982    0.8321 O   0  0  0  0  0  0  0  0  0  0  0  0
   -3.7629  -11.3692    0.5549 O   0  0  0  0  0  0  0  0  0  0  0  0
   -1.1923  -13.2069    2.0914 O   0  0  0  0  0  0  0  0  0  0  0  0
    0.1236   -8.4586   -0.7812 O   0  0  0  0  0  0  0  0  0  0  0  0
    2.6118   -9.0784   -0.6390 O   0  0  0  0  0  0  0  0  0  0  0  0
    4.2583   -6.4522   -1.1048 O   0  0  0  0  0  0  0  0  0  0  0  0
    5.9048   -6.4235    0.7253 O   0  0  0  0  0  0  0  0  0  0  0  0
    5.0877   -9.1294   -2.1475 O   0  0  0  0  0  0  0  0  0  0  0  0
    9.7519   -6.9163    1.1016 O   0  0  0  0  0  0  0  0  0  0  0  0
    8.4655   -5.3405    2.6012 O   0  0  0  0  0  0  0  0  0  0  0  0
   -2.4390   -8.1606   -0.4890 N   0  0  0  0  0  0  0  0  0  0  0  0
  1  2  1  0
  1 23  1  0
  1 26  1  1
  2  3  1  0
  2 33  1  1
  3  4  1  0
  3 24  1  6
  5  4  1  0
  4 25  1  1
  5  6  1  6
 23  5  1  0
  6 19  1  0
  8  7  1  0
  7 12  1  0
  7 21  1  1
  8  9  1  0
  8 28  1  6
  9 10  1  0
  9 27  1  1
 10 11  1  0
 10 26  1  6
 12 11  1  0
 11 20  1  1
 13 14  1  0
 13 28  1  1
 13 29  1  0
 14 15  1  0
 14 30  1  1
 15 16  1  0
 15 22  1  6
 16 17  1  0
 16 31  1  1
 17 18  1  6
 17 29  1  0
 18 32  1  0
M  CHG  5  19   1  20   1  21   1  22   1  33   1
M  END
$$$$
6np5_ligand
     RDKit          3D

 33 35  0  0  0  0  0  0  0  0999 V2000
   -0.1133   -8.6229   -0.8470 C   0  0  2  0  0  0  0  0  0  0  0  0
   -1.2652   -9.3474   -0.4644 C   0  0  1  0  0  0  0  0  0  0  0  0
   -1.9368  -10.5190   -0.1141 C   0  0  2  0  0  0  0  0  0  0  0  0
   -1.6136  -11.4739   -0.1285 C   0  0  1  0  0  0  0  0  0  0  0  0
    0.6640  -11.2796    0.0288 C   0  0  1  0  0  0  0  0  0  0  0  0
    2.1326  -12.3429   -0.1118 C   0  0  0  0  0  0  0  0  0  0  0  0
    3.3647   -4.0505   -1.9377 C   0  0  2  0  0  0  0  0  0  0  0  0
    3.3232   -5.1465   -1.2052 C   0  0  1  0  0  0  0  0  0  0  0  0
    2.4952   -6.1713   -1.5735 C   0  0  2  0  0  0  0  0  0  0  0  0
    1.2077   -6.9762   -1.7310 C   0  0  1  0  0  0  0  0  0  0  0  0
    1.4606   -5.8746   -3.1259 C   0  0  1  0  0  0  0  0  0  0  0  0
    2.9513   -4.4594   -2.4176 C   0  0  0  0  0  0  0  0  0  0  0  0
    5.1531   -5.8409   -1.0403 C   0  0  1  0  0  0  0  0  0  0  0  0
    5.5823   -7.4253   -0.0470 C   0  0  1  0  0  0  0  0  0  0  0  0
    6.4566   -7.2962    1.3629 C   0  0  1  0  0  0  0  0  0  0  0  0
    7.2703   -6.0899    0.9896 C   0  0  2  0  0  0  0  0  0  0  0  0
    7.2064   -5.1663    0.0276 C   0  0  1  0  0  0  0  0  0  0  0  0
    7.9336   -4.0853   -0.3777 C   0  0  0  0  0  0  0  0  0  0  0  0
    2.7430  -11.9979    1.4839 N   0  0  0  0  0  0  0  0  0  0  0  0
   -0.1339   -7.7420   -3.4105 N   0  0  0  0  0  0  0  0  0  0  0  0
    3.8918   -2.7993   -1.9292 N   0  0  0  0  0  0  0  0  0  0  0  0
    6.5083   -7.7213    2.3729 N   0  0  0  0  0  0  0  0  0  0  0  0
    0.9572   -9.6578   -0.4524 O   0  0  0  0  0  0  0  0  0  0  0  0
   -3.2846  -11.5418   -0.1081 O   0  0  0  0  0  0  0  0  0  0  0  0
   -2.4141  -12.1594    0.5738 O   0  0  0  0  0  0  0  0  0  0  0  0
    0.9678   -7.7456   -1.1799 O   0  0  0  0  0  0  0  0  0  0  0  0
    1.6903   -7.5202   -0.5379 O   0  0  0  0  0  0  0  0  0  0  0  0
    3.7326   -5.0955   -1.3301 O   0  0  0  0  0  0  0  0  0  0  0  0
    6.1875   -5.0206   -1.1642 O   0  0  0  0  0  0  0  0  0  0  0  0
    4.6312   -7.9823    0.1442 O   0  0  0  0  0  0  0  0  0  0  0  0
    8.5320   -6.2368    2.1194 O   0  0  0  0  0  0  0  0  0  0  0  0
    8.9951   -4.0068    0.1326 O   0  0  0  0  0  0  0  0  0  0  0  0
   -1.5563   -9.5312   -0.0715 N   0  0  0  0  0  0  0  0  0  0  0  0
  1  2  1  0
  1 23  1  0
  1 26  1  1
  2  3  1  0
  2 33  1  1
  3  4  1  0
  3 24  1  6
  5  4  1  0
  4 25  1  1
  5  6  1  6
 23  5  1  0
  6 19  1  0
  8  7  1  0
  7 12  1  0
  7 21  1  1
  8  9  1  0
  8 28  1  6
  9 10  1  0
  9 27  1  1
 10 11  1  0
 10 26  1  6
 12 11  1  0
 11 20  1  1
 13 14  1  0
 13 28  1  1
 13 29  1  0
 14 15  1  0
 14 30  1  1
 15 16  1  0
 15 22  1  6
 16 17  1  0
 16 31  1  1
 17 18  1  6
 17 29  1  0
 18 32  1  0
M  CHG  5  19   1  20   1  21   1  22   1  33   1
M  END
$$$$
6np5_ligand
     RDKit          3D

 33 35  0  0  0  0  0  0  0  0999 V2000
    0.1687   -8.3536   -0.9650 C   0  0  1  0  0  0  0  0  0  0  0  0
   -0.9932   -9.0818   -0.1660 C   0  0  1  0  0  0  0  0  0  0  0  0
   -1.3138  -10.6858   -0.1184 C   0  0  2  0  0  0  0  0  0  0  0  0
   -0.4767  -11.7830   -0.5354 C   0  0  2  0  0  0  0  0  0  0  0  0
    1.5232  -11.4071   -0.6461 C   0  0  1  0  0  0  0  0  0  0  0  0
    2.5572  -12.1046   -0.9742 C   0  0  0  0  0  0  0  0  0  0  0  0
    3.5411   -3.9569   -2.2707 C   0  0  2  0  0  0  0  0  0  0  0  0
    3.5838   -5.3752   -1.6740 C   0  0  1  0  0  0  0  0  0  0  0  0
    2.5903   -6.4413   -1.4698 C   0  0  1  0  0  0  0  0  0  0  0  0
    1.3631   -6.3895   -1.8050 C   0  0  1  0  0  0  0  0  0  0  0  0
    1.0378   -5.1869   -3.1350 C   0  0  1  0  0  0  0  0  0  0  0  0
    2.5460   -4.1066   -2.9543 C   0  0  0  0  0  0  0  0  0  0  0  0
    5.6479   -5.8172   -1.3271 C   0  0  1  0  0  0  0  0  0  0  0  0
    5.8456   -7.4927   -1.7058 C   0  0  1  0  0  0  0  0  0  0  0  0
    7.4531   -8.1397   -1.2934 C   0  0  1  0  0  0  0  0  0  0  0  0
    8.5053   -7.0139   -0.3491 C   0  0  2  0  0  0  0  0  0  0  0  0
    7.8816   -5.7865    0.0689 C   0  0  1  0  0  0  0  0  0  0  0  0
    8.7622   -4.8038    0.9326 C   0  0  0  0  0  0  0  0  0  0  0  0
    3.8908  -12.7477   -0.5025 N   0  0  0  0  0  0  0  0  0  0  0  0
    0.4330   -4.5856   -5.0996 N   0  0  0  0  0  0  0  0  0  0  0  0
    3.9974   -3.0729   -2.6139 N   0  0  0  0  0  0  0  0  0  0  0  0
    8.0076   -9.2962   -1.1397 N   0  0  0  0  0  0  0  0  0  0  0  0
    1.4356   -9.7572   -1.1543 O   0  0  0  0  0  0  0  0  0  0  0  0
   -3.0118  -10.9487    0.4753 O   0  0  0  0  0  0  0  0  0  0  0  0
   -0.9763  -12.9703   -0.8704 O   0  0  0  0  0  0  0  0  0  0  0  0
    0.8278   -7.4771   -1.6182 O   0  0  0  0  0  0  0  0  0  0  0  0
    1.9302   -8.0588   -1.1202 O   0  0  0  0  0  0  0  0  0  0  0  0
    4.2055   -5.5277   -1.6664 O   0  0  0  0  0  0  0  0  0  0  0  0
    6.5912   -5.1019   -0.3370 O   0  0  0  0  0  0  0  0  0  0  0  0
    5.2706   -8.7587   -1.5769 O   0  0  0  0  0  0  0  0  0  0  0  0
    9.5288   -7.4249   -0.2528 O   0  0  0  0  0  0  0  0  0  0  0  0
    9.5998   -5.4709    1.9772 O   0  0  0  0  0  0  0  0  0  0  0  0
   -0.8788   -8.4283    0.8391 N   0  0  0  0  0  0  0  0  0  0  0  0
  1  2  1  0
  1 23  1  0
  1 26  1  1
  2  3  1  0
  2 33  1  1
  3  4  1  0
  3 24  1  6
  5  4  1  0
  4 25  1  1
  5  6  1  6
 23  5  1  0
  6 19  1  0
  8  7  1  0
  7 12  1  0
  7 21  1  1
  8  9  1  0
  8 28  1  6
  9 10  1  0
  9 27  1  1
 10 11  1  0
 10 26  1  6
 12 11  1  0
 11 20  1  1
 13 14  1  0
 13 28  1  1
 13 29  1  0
 14 15  1  0
 14 30  1  1
 15 16  1  0
 15 22  1  6
 16 17  1  0
 16 31  1  1
 17 18  1  6
 17 29  1  0
 18 32  1  0
M  CHG  5  19   1  20   1  21   1  22   1  33   1
M  END
$$$$
6np5_ligand
     RDKit          3D

 33 35  0  0  0  0  0  0  0  0999 V2000
   -0.0735   -8.7494   -1.1593 C   0  0  2  0  0  0  0  0  0  0  0  0
   -1.3035   -9.3331   -0.5133 C   0  0  1  0  0  0  0  0  0  0  0  0
   -1.4074  -10.7459   -0.0838 C   0  0  2  0  0  0  0  0  0  0  0  0
   -0.0974  -11.8760    0.2577 C   0  0  2  0  0  0  0  0  0  0  0  0
    1.5890  -11.4249    0.1018 C   0  0  2  0  0  0  0  0  0  0  0  0
    2.6926  -12.1906    0.4435 C   0  0  0  0  0  0  0  0  0  0  0  0
    3.6039   -4.6274   -2.0822 C   0  0  1  0  0  0  0  0  0  0  0  0
    3.6127   -5.9691   -1.2765 C   0  0  1  0  0  0  0  0  0  0  0  0
    2.5347   -6.8670   -1.2292 C   0  0  2  0  0  0  0  0  0  0  0  0
    1.1410   -6.7269   -1.9386 C   0  0  1  0  0  0  0  0  0  0  0  0
    1.1924   -5.5084   -2.9635 C   0  0  2  0  0  0  0  0  0  0  0  0
    2.1104   -4.3595   -2.9733 C   0  0  0  0  0  0  0  0  0  0  0  0
    6.1801   -6.6869   -0.5794 C   0  0  1  0  0  0  0  0  0  0  0  0
    7.1958   -7.9229   -1.3696 C   0  0  1  0  0  0  0  0  0  0  0  0
    9.0210   -8.6929   -0.0862 C   0  0  1  0  0  0  0  0  0  0  0  0
    9.3306   -7.7934    1.7042 C   0  0  2  0  0  0  0  0  0  0  0  0
    8.2864   -6.4623    1.4921 C   0  0  1  0  0  0  0  0  0  0  0  0
    9.6374   -6.2394    2.4448 C   0  0  0  0  0  0  0  0  0  0  0  0
    3.3762  -12.0430    1.2067 N   0  0  0  0  0  0  0  0  0  0  0  0
   -0.9651   -5.0019   -4.5890 N   0  0  0  0  0  0  0  0  0  0  0  0
    4.2437   -3.6355   -2.1212 N   0  0  0  0  0  0  0  0  0  0  0  0
    9.8221  -10.0244   -0.0050 N   0  0  0  0  0  0  0  0  0  0  0  0
    1.5443   -9.9247   -0.4144 O   0  0  0  0  0  0  0  0  0  0  0  0
   -2.8829  -11.2976   -0.0053 O   0  0  0  0  0  0  0  0  0  0  0  0
   -0.4643  -13.0727    0.3745 O   0  0  0  0  0  0  0  0  0  0  0  0
    0.5220   -7.7195   -1.6743 O   0  0  0  0  0  0  0  0  0  0  0  0
    2.1504   -8.1337   -0.1531 O   0  0  0  0  0  0  0  0  0  0  0  0
    4.6038   -6.3431   -1.0020 O   0  0  0  0  0  0  0  0  0  0  0  0
    6.8446   -6.1838    0.5546 O   0  0  0  0  0  0  0  0  0  0  0  0
    7.1313   -8.4072   -2.3096 O   0  0  0  0  0  0  0  0  0  0  0  0
   10.5968   -7.9132    2.7259 O   0  0  0  0  0  0  0  0  0  0  0  0
    9.9340   -6.2611    2.4554 O   0  0  0  0  0  0  0  0  0  0  0  0
   -1.7580   -8.2953   -0.1487 N   0  0  0  0  0  0  0  0  0  0  0  0
  1  2  1  0
  1 23  1  0
  1 26  1  1
  2  3  1  0
  2 33  1  1
  3  4  1  0
  3 24  1  6
  5  4  1  0
  4 25  1  1
  5  6  1  6
 23  5  1  0
  6 19  1  0
  8  7  1  0
  7 12  1  0
  7 21  1  1
  8  9  1  0
  8 28  1  6
  9 10  1  0
  9 27  1  1
 10 11  1  0
 10 26  1  6
 12 11  1  0
 11 20  1  1
 13 14  1  0
 13 28  1  1
 13 29  1  0
 14 15  1  0
 14 30  1  1
 15 16  1  0
 15 22  1  6
 16 17  1  0
 16 31  1  1
 17 18  1  6
 17 29  1  0
 18 32  1  0
M  CHG  5  19   1  20   1  21   1  22   1  33   1
M  END
$$$$
6np5_ligand
     RDKit          3D

 33 35  0  0  0  0  0  0  0  0999 V2000
   -0.4676   -8.8908   -0.2414 C   0  0  1  0  0  0  0  0  0  0  0  0
   -1.9226   -9.0303    0.0060 C   0  0  1  0  0  0  0  0  0  0  0  0
   -2.3374  -10.2937    0.3898 C   0  0  1  0  0  0  0  0  0  0  0  0
   -1.2611  -11.3947    0.8433 C   0  0  2  0  0  0  0  0  0  0  0  0
    1.1637  -11.1546    0.2458 C   0  0  2  0  0  0  0  0  0  0  0  0
    2.4571  -11.8318    0.1574 C   0  0  0  0  0  0  0  0  0  0  0  0
    3.6304   -5.0584   -1.9993 C   0  0  1  0  0  0  0  0  0  0  0  0
    3.6468   -6.2512   -1.3292 C   0  0  1  0  0  0  0  0  0  0  0  0
    2.5731   -7.4669   -1.3002 C   0  0  2  0  0  0  0  0  0  0  0  0
    1.1170   -7.3485   -1.5165 C   0  0  1  0  0  0  0  0  0  0  0  0
    1.2285   -6.2642   -2.6566 C   0  0  2  0  0  0  0  0  0  0  0  0
    2.3747   -5.1453   -2.6056 C   0  0  0  0  0  0  0  0  0  0  0  0
    5.9899   -6.5769   -0.5029 C   0  0  1  0  0  0  0  0  0  0  0  0
    6.8209   -7.3700   -1.0597 C   0  0  1  0  0  0  0  0  0  0  0  0
    8.3292   -7.3523   -0.3833 C   0  0  1  0  0  0  0  0  0  0  0  0
    8.6041   -6.7517    1.1689 C   0  0  2  0  0  0  0  0  0  0  0  0
    7.6094   -6.0053    1.0653 C   0  0  2  0  0  0  0  0  0  0  0  0
    8.5247   -5.7666    1.8052 C   0  0  0  0  0  0  0  0  0  0  0  0
    3.4337  -12.2584    0.8294 N   0  0  0  0  0  0  0  0  0  0  0  0
    0.1701   -6.6956   -3.4051 N   0  0  0  0  0  0  0  0  0  0  0  0
    4.1724   -4.2764   -2.0281 N   0  0  0  0  0  0  0  0  0  0  0  0
    9.6062   -7.7038   -0.1710 N   0  0  0  0  0  0  0  0  0  0  0  0
    0.5857  -10.5621    0.3940 O   0  0  0  0  0  0  0  0  0  0  0  0
   -3.8065  -10.7779    0.4977 O   0  0  0  0  0  0  0  0  0  0  0  0
   -1.7088  -12.5086    1.3957 O   0  0  0  0  0  0  0  0  0  0  0  0
    0.4921   -8.1888   -0.8882 O   0  0  0  0  0  0  0  0  0  0  0  0
    2.3145   -9.1920   -0.4048 O   0  0  0  0  0  0  0  0  0  0  0  0
    4.5946   -6.3373   -0.8028 O   0  0  0  0  0  0  0  0  0  0  0  0
    6.5796   -6.0361    0.4149 O   0  0  0  0  0  0  0  0  0  0  0  0
    7.0551   -8.2626   -1.6287 O   0  0  0  0  0  0  0  0  0  0  0  0
    9.8118   -6.7825    2.1455 O   0  0  0  0  0  0  0  0  0  0  0  0
    9.7050   -5.0299    1.8459 O   0  0  0  0  0  0  0  0  0  0  0  0
   -2.4844   -8.2041    0.2500 N   0  0  0  0  0  0  0  0  0  0  0  0
  1  2  1  0
  1 23  1  0
  1 26  1  1
  2  3  1  0
  2 33  1  1
  3  4  1  0
  3 24  1  6
  5  4  1  0
  4 25  1  1
  5  6  1  6
 23  5  1  0
  6 19  1  0
  8  7  1  0
  7 12  1  0
  7 21  1  1
  8  9  1  0
  8 28  1  6
  9 10  1  0
  9 27  1  1
 10 11  1  0
 10 26  1  6
 12 11  1  0
 11 20  1  1
 13 14  1  0
 13 28  1  1
 13 29  1  0
 14 15  1  0
 14 30  1  1
 15 16  1  0
 15 22  1  6
 16 17  1  0
 16 31  1  1
 17 18  1  6
 17 29  1  0
 18 32  1  0
M  CHG  5  19   1  20   1  21   1  22   1  33   1
M  END
$$$$
6np5_ligand
     RDKit          3D

 33 35  0  0  0  0  0  0  0  0999 V2000
   -0.2815   -8.6617   -0.9137 C   0  0  2  0  0  0  0  0  0  0  0  0
   -1.7150   -8.7641   -0.7546 C   0  0  1  0  0  0  0  0  0  0  0  0
   -2.1257  -10.2665   -0.2199 C   0  0  1  0  0  0  0  0  0  0  0  0
   -0.7990  -11.4778    0.3304 C   0  0  2  0  0  0  0  0  0  0  0  0
    0.8574  -10.9247   -0.0047 C   0  0  2  0  0  0  0  0  0  0  0  0
    1.4927  -11.7462    0.4755 C   0  0  0  0  0  0  0  0  0  0  0  0
    2.7941   -4.2495   -1.8421 C   0  0  1  0  0  0  0  0  0  0  0  0
    3.1580   -5.6222   -1.2620 C   0  0  1  0  0  0  0  0  0  0  0  0
    2.2391   -6.9196   -1.2687 C   0  0  2  0  0  0  0  0  0  0  0  0
    0.8427   -6.6401   -1.5170 C   0  0  1  0  0  0  0  0  0  0  0  0
    0.4075   -5.4416   -2.3343 C   0  0  2  0  0  0  0  0  0  0  0  0
    1.1730   -4.3396   -2.2539 C   0  0  0  0  0  0  0  0  0  0  0  0
    5.2618   -5.8399   -0.6372 C   0  0  1  0  0  0  0  0  0  0  0  0
    6.4978   -6.9067   -0.5154 C   0  0  2  0  0  0  0  0  0  0  0  0
    7.3077   -7.5974   -0.0878 C   0  0  2  0  0  0  0  0  0  0  0  0
    7.8867   -6.7195    0.7946 C   0  0  2  0  0  0  0  0  0  0  0  0
    6.9610   -5.5575    0.8613 C   0  0  1  0  0  0  0  0  0  0  0  0
    8.1664   -5.2268    1.4204 C   0  0  0  0  0  0  0  0  0  0  0  0
    2.2560  -12.6687    1.1797 N   0  0  0  0  0  0  0  0  0  0  0  0
   -0.8903   -5.9187   -2.7789 N   0  0  0  0  0  0  0  0  0  0  0  0
    3.5605   -3.1631   -1.8057 N   0  0  0  0  0  0  0  0  0  0  0  0
    8.7378   -8.2718    0.4018 N   0  0  0  0  0  0  0  0  0  0  0  0
    1.4258   -9.7677   -0.5085 O   0  0  0  0  0  0  0  0  0  0  0  0
   -3.6475  -10.4103   -0.0286 O   0  0  0  0  0  0  0  0  0  0  0  0
   -1.0479  -12.8856    0.7231 O   0  0  0  0  0  0  0  0  0  0  0  0
    0.4182   -7.6597   -1.3870 O   0  0  0  0  0  0  0  0  0  0  0  0
    2.6674   -8.2301   -0.8538 O   0  0  0  0  0  0  0  0  0  0  0  0
    4.2486   -5.7753   -0.8505 O   0  0  0  0  0  0  0  0  0  0  0  0
    5.7407   -5.1258    0.0974 O   0  0  0  0  0  0  0  0  0  0  0  0
    6.9240   -6.7313   -0.0488 O   0  0  0  0  0  0  0  0  0  0  0  0
    9.1772   -6.9108    1.2478 O   0  0  0  0  0  0  0  0  0  0  0  0
    8.9604   -4.8651    1.4440 O   0  0  0  0  0  0  0  0  0  0  0  0
   -2.1965   -7.1818   -1.0250 N   0  0  0  0  0  0  0  0  0  0  0  0
  1  2  1  0
  1 23  1  0
  1 26  1  1
  2  3  1  0
  2 33  1  1
  3  4  1  0
  3 24  1  6
  5  4  1  0
  4 25  1  1
  5  6  1  6
 23  5  1  0
  6 19  1  0
  8  7  1  0
  7 12  1  0
  7 21  1  1
  8  9  1  0
  8 28  1  6
  9 10  1  0
  9 27  1  1
 10 11  1  0
 10 26  1  6
 12 11  1  0
 11 20  1  1
 13 14  1  0
 13 28  1  1
 13 29  1  0
 14 15  1  0
 14 30  1  1
 15 16  1  0
 15 22  1  6
 16 17  1  0
 16 31  1  1
 17 18  1  6
 17 29  1  0
 18 32  1  0
M  CHG  5  19   1  20   1  21   1  22   1  33   1
M  END
$$$$
6np5_ligand
     RDKit          3D

 33 35  0  0  0  0  0  0  0  0999 V2000
   -0.3521   -8.7152    0.0177 C   0  0  1  0  0  0  0  0  0  0  0  0
   -1.5452   -8.8102   -0.0032 C   0  0  2  0  0  0  0  0  0  0  0  0
   -1.5730  -10.1269    0.9247 C   0  0  2  0  0  0  0  0  0  0  0  0
   -0.3911  -11.2602    1.3850 C   0  0  2  0  0  0  0  0  0  0  0  0
    1.1065  -10.6779    0.8422 C   0  0  2  0  0  0  0  0  0  0  0  0
    2.0824  -11.5518    1.1606 C   0  0  0  0  0  0  0  0  0  0  0  0
    2.1698   -4.5882   -1.9573 C   0  0  1  0  0  0  0  0  0  0  0  0
    2.7528   -5.7905   -1.2288 C   0  0  1  0  0  0  0  0  0  0  0  0
    2.0528   -7.2323   -0.9832 C   0  0  2  0  0  0  0  0  0  0  0  0
    0.6701   -6.7712   -1.0288 C   0  0  1  0  0  0  0  0  0  0  0  0
   -0.0734   -5.5662   -1.7576 C   0  0  2  0  0  0  0  0  0  0  0  0
    0.7084   -4.5993   -2.0120 C   0  0  0  0  0  0  0  0  0  0  0  0
    5.0640   -5.9689   -0.9848 C   0  0  2  0  0  0  0  0  0  0  0  0
    6.4040   -6.4954   -0.4731 C   0  0  1  0  0  0  0  0  0  0  0  0
    7.4033   -6.0226    0.8710 C   0  0  2  0  0  0  0  0  0  0  0  0
    7.6729   -5.8563    0.2875 C   0  0  1  0  0  0  0  0  0  0  0  0
    6.9522   -5.7604   -0.3759 C   0  0  1  0  0  0  0  0  0  0  0  0
    8.4060   -6.0919   -0.3203 C   0  0  0  0  0  0  0  0  0  0  0  0
    3.3862  -12.0998    1.6318 N   0  0  0  0  0  0  0  0  0  0  0  0
   -1.3477   -5.5732   -1.9572 N   0  0  0  0  0  0  0  0  0  0  0  0
    3.1124   -3.5582   -1.8839 N   0  0  0  0  0  0  0  0  0  0  0  0
    8.5688   -7.0106    1.3492 N   0  0  0  0  0  0  0  0  0  0  0  0
    1.2760   -9.8697    0.4387 O   0  0  0  0  0  0  0  0  0  0  0  0
   -3.1603  -10.6298    1.2660 O   0  0  0  0  0  0  0  0  0  0  0  0
   -0.0738  -12.4696    1.9580 O   0  0  0  0  0  0  0  0  0  0  0  0
    0.1799   -7.8673   -0.7520 O   0  0  0  0  0  0  0  0  0  0  0  0
    2.5454   -8.4334   -0.5732 O   0  0  0  0  0  0  0  0  0  0  0  0
    3.7378   -5.8819   -1.1329 O   0  0  0  0  0  0  0  0  0  0  0  0
    5.6816   -5.9504   -0.9665 O   0  0  0  0  0  0  0  0  0  0  0  0
    5.8098   -8.2704   -0.9841 O   0  0  0  0  0  0  0  0  0  0  0  0
    8.8848   -5.4286    1.1419 O   0  0  0  0  0  0  0  0  0  0  0  0
    9.1559   -5.9674    0.1784 O   0  0  0  0  0  0  0  0  0  0  0  0
   -2.0451   -7.5300   -1.0104 N   0  0  0  0  0  0  0  0  0  0  0  0
  1  2  1  0
  1 23  1  0
  1 26  1  1
  2  3  1  0
  2 33  1  1
  3  4  1  0
  3 24  1  6
  5  4  1  0
  4 25  1  1
  5  6  1  6
 23  5  1  0
  6 19  1  0
  8  7  1  0
  7 12  1  0
  7 21  1  1
  8  9  1  0
  8 28  1  6
  9 10  1  0
  9 27  1  1
 10 11  1  0
 10 26  1  6
 12 11  1  0
 11 20  1  1
 13 14  1  0
 13 28  1  1
 13 29  1  0
 14 15  1  0
 14 30  1  1
 15 16  1  0
 15 22  1  6
 16 17  1  0
 16 31  1  1
 17 18  1  6
 17 29  1  0
 18 32  1  0
M  CHG  5  19   1  20   1  21   1  22   1  33   1
M  END
$$$$
6np5_ligand
     RDKit          3D

 33 35  0  0  0  0  0  0  0  0999 V2000
   -0.2875   -8.8983   -0.4944 C   0  0  2  0  0  0  0  0  0  0  0  0
   -1.4043   -9.0859   -0.3961 C   0  0  1  0  0  0  0  0  0  0  0  0
   -1.3145  -10.5950    0.3234 C   0  0  2  0  0  0  0  0  0  0  0  0
   -0.1537  -11.7872    0.9170 C   0  0  2  0  0  0  0  0  0  0  0  0
    1.1478  -10.9997    0.8074 C   0  0  1  0  0  0  0  0  0  0  0  0
    2.2392  -11.6035    1.1516 C   0  0  0  0  0  0  0  0  0  0  0  0
    2.6591   -4.7724   -2.0521 C   0  0  1  0  0  0  0  0  0  0  0  0
    3.1200   -6.0405   -1.2103 C   0  0  1  0  0  0  0  0  0  0  0  0
    2.2783   -7.1810   -0.9523 C   0  0  2  0  0  0  0  0  0  0  0  0
    0.8539   -6.7856   -1.3877 C   0  0  1  0  0  0  0  0  0  0  0  0
    0.2894   -5.6217   -2.4728 C   0  0  1  0  0  0  0  0  0  0  0  0
    1.2629   -4.6176   -2.4758 C   0  0  0  0  0  0  0  0  0  0  0  0
    5.3331   -6.2587   -0.4358 C   0  0  1  0  0  0  0  0  0  0  0  0
    6.2945   -7.3138   -0.7141 C   0  0  1  0  0  0  0  0  0  0  0  0
    7.7077   -7.6879    0.4232 C   0  0  2  0  0  0  0  0  0  0  0  0
    7.9828   -7.0785    1.0916 C   0  0  1  0  0  0  0  0  0  0  0  0
    6.9695   -6.1227    0.9716 C   0  0  1  0  0  0  0  0  0  0  0  0
    8.3731   -6.0445    1.5461 C   0  0  0  0  0  0  0  0  0  0  0  0
    3.7164  -11.8646    1.9841 N   0  0  0  0  0  0  0  0  0  0  0  0
   -0.7511   -5.8405   -3.2127 N   0  0  0  0  0  0  0  0  0  0  0  0
    3.6169   -3.8153   -1.9401 N   0  0  0  0  0  0  0  0  0  0  0  0
    8.8765   -8.4724    0.7477 N   0  0  0  0  0  0  0  0  0  0  0  0
    1.2112   -9.8737    0.2748 O   0  0  0  0  0  0  0  0  0  0  0  0
   -3.0177  -11.1945    0.1707 O   0  0  0  0  0  0  0  0  0  0  0  0
    0.2342  -13.2067    1.3154 O   0  0  0  0  0  0  0  0  0  0  0  0
    0.1939   -7.9311   -1.1663 O   0  0  0  0  0  0  0  0  0  0  0  0
    2.6137   -8.3272   -0.1545 O   0  0  0  0  0  0  0  0  0  0  0  0
    4.1690   -6.0453   -0.8677 O   0  0  0  0  0  0  0  0  0  0  0  0
    5.6880   -6.0105    0.2874 O   0  0  0  0  0  0  0  0  0  0  0  0
    5.9641   -8.0558   -0.7536 O   0  0  0  0  0  0  0  0  0  0  0  0
    9.0621   -7.1426    2.0409 O   0  0  0  0  0  0  0  0  0  0  0  0
    9.1989   -5.1427    1.6925 O   0  0  0  0  0  0  0  0  0  0  0  0
   -2.1178   -7.7202   -0.8223 N   0  0  0  0  0  0  0  0  0  0  0  0
  1  2  1  0
  1 23  1  0
  1 26  1  1
  2  3  1  0
  2 33  1  1
  3  4  1  0
  3 24  1  6
  5  4  1  0
  4 25  1  1
  5  6  1  6
 23  5  1  0
  6 19  1  0
  8  7  1  0
  7 12  1  0
  7 21  1  1
  8  9  1  0
  8 28  1  6
  9 10  1  0
  9 27  1  1
 10 11  1  0
 10 26  1  6
 12 11  1  0
 11 20  1  1
 13 14  1  0
 13 28  1  1
 13 29  1  0
 14 15  1  0
 14 30  1  1
 15 16  1  0
 15 22  1  6
 16 17  1  0
 16 31  1  1
 17 18  1  6
 17 29  1  0
 18 32  1  0
M  CHG  5  19   1  20   1  21   1  22   1  33   1
M  END
$$$$
6np5_ligand
     RDKit          3D

 33 35  0  0  0  0  0  0  0  0999 V2000
   -0.0533   -8.9909    0.0266 C   0  0  1  0  0  0  0  0  0  0  0  0
   -1.0915   -9.3625    0.0640 C   0  0  1  0  0  0  0  0  0  0  0  0
   -0.6610  -10.6634    1.1430 C   0  0  2  0  0  0  0  0  0  0  0  0
    0.5835  -11.3857    1.7487 C   0  0  2  0  0  0  0  0  0  0  0  0
    1.7334  -10.6738    1.1416 C   0  0  2  0  0  0  0  0  0  0  0  0
    3.0286  -11.2130    1.5157 C   0  0  0  0  0  0  0  0  0  0  0  0
    2.9213   -4.9994   -1.9733 C   0  0  1  0  0  0  0  0  0  0  0  0
    3.1406   -6.2025   -1.0612 C   0  0  1  0  0  0  0  0  0  0  0  0
    2.3771   -7.2066   -0.6442 C   0  0  2  0  0  0  0  0  0  0  0  0
    1.0339   -6.9240   -1.3209 C   0  0  1  0  0  0  0  0  0  0  0  0
    0.4779   -5.8810   -2.3757 C   0  0  1  0  0  0  0  0  0  0  0  0
    1.5061   -5.0479   -2.5415 C   0  0  0  0  0  0  0  0  0  0  0  0
    5.3878   -6.6987   -0.2773 C   0  0  2  0  0  0  0  0  0  0  0  0
    6.1369   -6.9772   -1.4663 C   0  0  2  0  0  0  0  0  0  0  0  0
    7.6385   -7.8222   -0.7982 C   0  0  1  0  0  0  0  0  0  0  0  0
    7.8155   -7.8673    0.9597 C   0  0  2  0  0  0  0  0  0  0  0  0
    7.1076   -6.8973    1.0796 C   0  0  2  0  0  0  0  0  0  0  0  0
    8.4201   -7.1846    1.8983 C   0  0  0  0  0  0  0  0  0  0  0  0
    4.5252  -11.4372    1.5735 N   0  0  0  0  0  0  0  0  0  0  0  0
   -0.4874   -6.4225   -3.2014 N   0  0  0  0  0  0  0  0  0  0  0  0
    4.0003   -4.0907   -1.8725 N   0  0  0  0  0  0  0  0  0  0  0  0
    8.6250   -8.4288   -0.8603 N   0  0  0  0  0  0  0  0  0  0  0  0
    1.7474   -9.5686    0.6993 O   0  0  0  0  0  0  0  0  0  0  0  0
   -2.1489  -11.3476    1.2420 O   0  0  0  0  0  0  0  0  0  0  0  0
    1.3566  -12.2832    2.4521 O   0  0  0  0  0  0  0  0  0  0  0  0
    0.3249   -8.0771   -0.8350 O   0  0  0  0  0  0  0  0  0  0  0  0
    2.7385   -8.3332    0.5490 O   0  0  0  0  0  0  0  0  0  0  0  0
    4.2445   -6.3129   -0.7670 O   0  0  0  0  0  0  0  0  0  0  0  0
    5.7602   -6.6597    0.5372 O   0  0  0  0  0  0  0  0  0  0  0  0
    6.3383   -6.6877   -2.3311 O   0  0  0  0  0  0  0  0  0  0  0  0
    8.6407   -8.8009    2.1777 O   0  0  0  0  0  0  0  0  0  0  0  0
    9.1799   -7.1086    1.8733 O   0  0  0  0  0  0  0  0  0  0  0  0
   -1.8850   -8.0410   -0.8309 N   0  0  0  0  0  0  0  0  0  0  0  0
  1  2  1  0
  1 23  1  0
  1 26  1  1
  2  3  1  0
  2 33  1  1
  3  4  1  0
  3 24  1  6
  5  4  1  0
  4 25  1  1
  5  6  1  6
 23  5  1  0
  6 19  1  0
  8  7  1  0
  7 12  1  0
  7 21  1  1
  8  9  1  0
  8 28  1  6
  9 10  1  0
  9 27  1  1
 10 11  1  0
 10 26  1  6
 12 11  1  0
 11 20  1  1
 13 14  1  0
 13 28  1  1
 13 29  1  0
 14 15  1  0
 14 30  1  6
 15 16  1  0
 15 22  1  6
 16 17  1  0
 16 31  1  1
 17 18  1  6
 17 29  1  0
 18 32  1  0
M  CHG  5  19   1  20   1  21   1  22   1  33   1
M  END
$$$$
6np5_ligand
     RDKit          3D

 33 35  0  0  0  0  0  0  0  0999 V2000
   -0.2488   -8.9065    0.3024 C   0  0  1  0  0  0  0  0  0  0  0  0
   -1.5593   -9.3451    0.2897 C   0  0  2  0  0  0  0  0  0  0  0  0
   -1.1842  -10.7985    1.1054 C   0  0  2  0  0  0  0  0  0  0  0  0
    0.1365  -11.5226    1.5844 C   0  0  2  0  0  0  0  0  0  0  0  0
    1.3414  -10.5196    1.1722 C   0  0  2  0  0  0  0  0  0  0  0  0
    2.5281  -11.1978    1.4193 C   0  0  0  0  0  0  0  0  0  0  0  0
    2.3392   -4.9183   -1.8722 C   0  0  1  0  0  0  0  0  0  0  0  0
    2.8182   -6.2212   -1.0293 C   0  0  2  0  0  0  0  0  0  0  0  0
    2.0589   -7.3503   -0.6466 C   0  0  2  0  0  0  0  0  0  0  0  0
    0.6735   -6.8827   -1.0285 C   0  0  1  0  0  0  0  0  0  0  0  0
    0.0712   -5.7612   -2.0781 C   0  0  1  0  0  0  0  0  0  0  0  0
    0.9488   -4.8032   -2.2266 C   0  0  0  0  0  0  0  0  0  0  0  0
    5.2622   -6.6209   -0.1705 C   0  0  2  0  0  0  0  0  0  0  0  0
    6.0041   -5.7883   -0.6051 C   0  0  2  0  0  0  0  0  0  0  0  0
    7.6077   -6.1420    0.9409 C   0  0  1  0  0  0  0  0  0  0  0  0
    7.8959   -7.1721    1.6038 C   0  0  2  0  0  0  0  0  0  0  0  0
    7.0206   -6.9094    1.2430 C   0  0  1  0  0  0  0  0  0  0  0  0
    8.2933   -7.5117    1.6147 C   0  0  0  0  0  0  0  0  0  0  0  0
    3.8198  -11.3192    1.6443 N   0  0  0  0  0  0  0  0  0  0  0  0
   -0.8647   -6.3435   -2.9604 N   0  0  0  0  0  0  0  0  0  0  0  0
    3.1396   -3.8525   -1.9267 N   0  0  0  0  0  0  0  0  0  0  0  0
    9.1785   -6.7763    1.2547 N   0  0  0  0  0  0  0  0  0  0  0  0
    1.3700   -9.4611    0.9884 O   0  0  0  0  0  0  0  0  0  0  0  0
   -2.7750  -11.2598    0.9894 O   0  0  0  0  0  0  0  0  0  0  0  0
    0.8117  -12.4981    2.1229 O   0  0  0  0  0  0  0  0  0  0  0  0
    0.0095   -8.0964   -0.6838 O   0  0  0  0  0  0  0  0  0  0  0  0
    2.8628   -8.5063    0.1357 O   0  0  0  0  0  0  0  0  0  0  0  0
    3.9095   -6.2167   -0.5558 O   0  0  0  0  0  0  0  0  0  0  0  0
    5.5435   -7.1098    0.4251 O   0  0  0  0  0  0  0  0  0  0  0  0
    6.4455   -5.1677   -0.8432 O   0  0  0  0  0  0  0  0  0  0  0  0
    8.6648   -7.9207    2.6919 O   0  0  0  0  0  0  0  0  0  0  0  0
    9.1784   -7.5831    2.0821 O   0  0  0  0  0  0  0  0  0  0  0  0
   -2.3847   -8.1229   -0.8776 N   0  0  0  0  0  0  0  0  0  0  0  0
  1  2  1  0
  1 23  1  0
  1 26  1  1
  2  3  1  0
  2 33  1  1
  3  4  1  0
  3 24  1  6
  5  4  1  0
  4 25  1  1
  5  6  1  6
 23  5  1  0
  6 19  1  0
  8  7  1  0
  7 12  1  0
  7 21  1  1
  8  9  1  0
  8 28  1  6
  9 10  1  0
  9 27  1  1
 10 11  1  0
 10 26  1  6
 12 11  1  0
 11 20  1  1
 13 14  1  0
 13 28  1  6
 13 29  1  0
 14 15  1  0
 14 30  1  6
 15 16  1  0
 15 22  1  1
 16 17  1  0
 16 31  1  6
 17 18  1  6
 17 29  1  0
 18 32  1  0
M  CHG  5  19   1  20   1  21   1  22   1  33   1
M  END
$$$$
6np5_ligand
     RDKit          3D

 33 35  0  0  0  0  0  0  0  0999 V2000
    0.2046   -8.9443    0.1560 C   0  0  1  0  0  0  0  0  0  0  0  0
   -1.0461   -9.3588    0.4651 C   0  0  1  0  0  0  0  0  0  0  0  0
   -0.8222  -10.5499    1.3705 C   0  0  2  0  0  0  0  0  0  0  0  0
    0.5393  -11.3373    1.6398 C   0  0  2  0  0  0  0  0  0  0  0  0
    1.8155  -10.5867    0.9614 C   0  0  1  0  0  0  0  0  0  0  0  0
    3.2410  -11.2712    0.9904 C   0  0  0  0  0  0  0  0  0  0  0  0
    2.9226   -5.0141   -2.5627 C   0  0  2  0  0  0  0  0  0  0  0  0
    3.2628   -6.0642   -1.4069 C   0  0  1  0  0  0  0  0  0  0  0  0
    2.3502   -6.9386   -0.7247 C   0  0  2  0  0  0  0  0  0  0  0  0
    1.0635   -6.8842   -1.3095 C   0  0  1  0  0  0  0  0  0  0  0  0
    0.6943   -5.9127   -2.5400 C   0  0  1  0  0  0  0  0  0  0  0  0
    1.5956   -5.2287   -3.0757 C   0  0  0  0  0  0  0  0  0  0  0  0
    5.5935   -6.5466   -0.5466 C   0  0  2  0  0  0  0  0  0  0  0  0
    6.7776   -7.3172   -0.8992 C   0  0  2  0  0  0  0  0  0  0  0  0
    8.1167   -7.8642   -0.0603 C   0  0  1  0  0  0  0  0  0  0  0  0
    7.9870   -7.5042    1.0514 C   0  0  2  0  0  0  0  0  0  0  0  0
    7.4006   -6.6582    0.6163 C   0  0  1  0  0  0  0  0  0  0  0  0
    8.8325   -6.7530    1.2030 C   0  0  0  0  0  0  0  0  0  0  0  0
    4.7679  -11.3163    0.3748 N   0  0  0  0  0  0  0  0  0  0  0  0
   -0.4952   -6.2628   -2.7885 N   0  0  0  0  0  0  0  0  0  0  0  0
    4.0109   -4.2791   -2.8747 N   0  0  0  0  0  0  0  0  0  0  0  0
    8.6902   -8.4657    0.1197 N   0  0  0  0  0  0  0  0  0  0  0  0
    1.9556   -9.7542    0.2788 O   0  0  0  0  0  0  0  0  0  0  0  0
   -2.3515  -10.8421    1.6975 O   0  0  0  0  0  0  0  0  0  0  0  0
    1.0218  -12.5037    2.2821 O   0  0  0  0  0  0  0  0  0  0  0  0
    0.4588   -7.9780   -0.6294 O   0  0  0  0  0  0  0  0  0  0  0  0
    2.8978   -7.6017    0.6818 O   0  0  0  0  0  0  0  0  0  0  0  0
    4.3991   -6.2340   -1.0686 O   0  0  0  0  0  0  0  0  0  0  0  0
    6.0581   -6.4305    0.0098 O   0  0  0  0  0  0  0  0  0  0  0  0
    5.6411   -7.1115   -2.8446 O   0  0  0  0  0  0  0  0  0  0  0  0
    8.7807   -8.0409    2.1898 O   0  0  0  0  0  0  0  0  0  0  0  0
    9.7129   -5.9859    0.9696 O   0  0  0  0  0  0  0  0  0  0  0  0
   -2.1187   -8.0261   -0.0902 N   0  0  0  0  0  0  0  0  0  0  0  0
  1  2  1  0
  1 23  1  0
  1 26  1  1
  2  3  1  0
  2 33  1  1
  3  4  1  0
  3 24  1  6
  5  4  1  0
  4 25  1  1
  5  6  1  6
 23  5  1  0
  6 19  1  0
  8  7  1  0
  7 12  1  0
  7 21  1  1
  8  9  1  0
  8 28  1  6
  9 10  1  0
  9 27  1  1
 10 11  1  0
 10 26  1  6
 12 11  1  0
 11 20  1  1
 13 14  1  0
 13 28  1  1
 13 29  1  0
 14 15  1  0
 14 30  1  1
 15 16  1  0
 15 22  1  6
 16 17  1  0
 16 31  1  1
 17 18  1  6
 17 29  1  0
 18 32  1  0
M  CHG  5  19   1  20   1  21   1  22   1  33   1
M  END
$$$$
6np5_ligand
     RDKit          3D

 33 35  0  0  0  0  0  0  0  0999 V2000
    0.6122   -9.0917    0.1839 C   0  0  1  0  0  0  0  0  0  0  0  0
   -0.5573   -9.5743    0.4260 C   0  0  1  0  0  0  0  0  0  0  0  0
   -0.1966  -10.8627    1.2551 C   0  0  2  0  0  0  0  0  0  0  0  0
    1.0294  -11.4651    1.3599 C   0  0  1  0  0  0  0  0  0  0  0  0
    1.9398  -10.5395    0.8333 C   0  0  2  0  0  0  0  0  0  0  0  0
    3.6332  -11.2483    1.0734 C   0  0  0  0  0  0  0  0  0  0  0  0
    3.2386   -5.2871   -2.2337 C   0  0  2  0  0  0  0  0  0  0  0  0
    3.7382   -6.4157   -1.1637 C   0  0  2  0  0  0  0  0  0  0  0  0
    2.9263   -7.0753   -0.5506 C   0  0  1  0  0  0  0  0  0  0  0  0
    1.5598   -7.0894   -1.1373 C   0  0  1  0  0  0  0  0  0  0  0  0
    1.2207   -6.1481   -2.1766 C   0  0  1  0  0  0  0  0  0  0  0  0
    1.8775   -5.4602   -2.7334 C   0  0  0  0  0  0  0  0  0  0  0  0
    6.0126   -6.8065   -0.2861 C   0  0  1  0  0  0  0  0  0  0  0  0
    6.9077   -6.5851   -1.1344 C   0  0  2  0  0  0  0  0  0  0  0  0
    8.1816   -6.2725   -0.1418 C   0  0  1  0  0  0  0  0  0  0  0  0
    8.3394   -7.3694    1.1244 C   0  0  2  0  0  0  0  0  0  0  0  0
    7.6158   -7.3647    0.8912 C   0  0  2  0  0  0  0  0  0  0  0  0
    8.5745   -8.3829    1.4360 C   0  0  0  0  0  0  0  0  0  0  0  0
    4.7925  -11.4345    0.6862 N   0  0  0  0  0  0  0  0  0  0  0  0
    0.0346   -6.2219   -2.4852 N   0  0  0  0  0  0  0  0  0  0  0  0
    4.2763   -4.5610   -2.7466 N   0  0  0  0  0  0  0  0  0  0  0  0
   10.0892   -7.6386   -0.2086 N   0  0  0  0  0  0  0  0  0  0  0  0
    2.1964   -9.6390    0.4774 O   0  0  0  0  0  0  0  0  0  0  0  0
   -1.6389  -11.3990    1.4320 O   0  0  0  0  0  0  0  0  0  0  0  0
    1.1417  -12.5711    1.9649 O   0  0  0  0  0  0  0  0  0  0  0  0
    0.9213   -8.1804   -0.4724 O   0  0  0  0  0  0  0  0  0  0  0  0
    3.4929   -8.0274    0.7925 O   0  0  0  0  0  0  0  0  0  0  0  0
    4.6137   -6.4732   -0.8397 O   0  0  0  0  0  0  0  0  0  0  0  0
    6.2933   -7.5493    0.3204 O   0  0  0  0  0  0  0  0  0  0  0  0
    6.6265   -6.1862   -2.4635 O   0  0  0  0  0  0  0  0  0  0  0  0
    9.4177   -7.3977    2.2355 O   0  0  0  0  0  0  0  0  0  0  0  0
    9.0823   -9.0161    1.2011 O   0  0  0  0  0  0  0  0  0  0  0  0
   -1.6459   -8.3092   -0.2043 N   0  0  0  0  0  0  0  0  0  0  0  0
  1  2  1  0
  1 23  1  0
  1 26  1  1
  2  3  1  0
  2 33  1  1
  3  4  1  0
  3 24  1  6
  5  4  1  0
  4 25  1  1
  5  6  1  6
 23  5  1  0
  6 19  1  0
  8  7  1  0
  7 12  1  0
  7 21  1  1
  8  9  1  0
  8 28  1  6
  9 10  1  0
  9 27  1  1
 10 11  1  0
 10 26  1  6
 12 11  1  0
 11 20  1  1
 13 14  1  0
 13 28  1  6
 13 29  1  0
 14 15  1  0
 14 30  1  6
 15 16  1  0
 15 22  1  1
 16 17  1  0
 16 31  1  6
 17 18  1  6
 17 29  1  0
 18 32  1  0
M  CHG  5  19   1  20   1  21   1  22   1  33   1
M  END
$$$$
6np5_ligand
     RDKit          3D

 33 35  0  0  0  0  0  0  0  0999 V2000
    0.1918   -8.8207    0.0151 C   0  0  1  0  0  0  0  0  0  0  0  0
   -0.8925   -9.2675    0.1260 C   0  0  1  0  0  0  0  0  0  0  0  0
   -0.6619  -10.5076    0.8684 C   0  0  2  0  0  0  0  0  0  0  0  0
    0.4802  -11.2974    1.0935 C   0  0  1  0  0  0  0  0  0  0  0  0
    1.6806  -10.3957    0.8385 C   0  0  2  0  0  0  0  0  0  0  0  0
    3.2512  -11.1117    1.0422 C   0  0  0  0  0  0  0  0  0  0  0  0
    2.9034   -5.2202   -2.4426 C   0  0  1  0  0  0  0  0  0  0  0  0
    3.3277   -6.2572   -1.3631 C   0  0  1  0  0  0  0  0  0  0  0  0
    2.5452   -6.8930   -0.8034 C   0  0  1  0  0  0  0  0  0  0  0  0
    1.1938   -6.8759   -1.2517 C   0  0  1  0  0  0  0  0  0  0  0  0
    0.6619   -5.9153   -2.2454 C   0  0  1  0  0  0  0  0  0  0  0  0
    1.5547   -5.2361   -2.7188 C   0  0  0  0  0  0  0  0  0  0  0  0
    5.5377   -6.8274   -0.8319 C   0  0  1  0  0  0  0  0  0  0  0  0
    6.3436   -7.9520   -1.7074 C   0  0  1  0  0  0  0  0  0  0  0  0
    7.4366   -8.1346   -1.4639 C   0  0  1  0  0  0  0  0  0  0  0  0
    8.1693   -7.6299    0.1366 C   0  0  2  0  0  0  0  0  0  0  0  0
    7.1595   -6.8616    0.5027 C   0  0  2  0  0  0  0  0  0  0  0  0
    8.3053   -6.8892    1.2571 C   0  0  0  0  0  0  0  0  0  0  0  0
    4.7517  -10.9906    1.0884 N   0  0  0  0  0  0  0  0  0  0  0  0
   -0.5832   -6.1594   -2.3486 N   0  0  0  0  0  0  0  0  0  0  0  0
    4.0844   -4.4622   -2.8222 N   0  0  0  0  0  0  0  0  0  0  0  0
    8.3668   -9.0832   -1.7408 N   0  0  0  0  0  0  0  0  0  0  0  0
    1.8722   -9.4052    0.6733 O   0  0  0  0  0  0  0  0  0  0  0  0
   -2.0503  -11.0327    0.5987 O   0  0  0  0  0  0  0  0  0  0  0  0
    0.5950  -12.4653    1.6701 O   0  0  0  0  0  0  0  0  0  0  0  0
    0.5329   -7.9927   -0.7070 O   0  0  0  0  0  0  0  0  0  0  0  0
    3.0390   -7.9550    0.6116 O   0  0  0  0  0  0  0  0  0  0  0  0
    4.1779   -6.6846   -1.3189 O   0  0  0  0  0  0  0  0  0  0  0  0
    5.7475   -6.6580    0.3171 O   0  0  0  0  0  0  0  0  0  0  0  0
    5.4131   -8.7411   -2.6133 O   0  0  0  0  0  0  0  0  0  0  0  0
    9.2554   -7.4675    1.0785 O   0  0  0  0  0  0  0  0  0  0  0  0
    9.9299   -7.4118    1.1537 O   0  0  0  0  0  0  0  0  0  0  0  0
   -1.8523   -8.2155   -0.5784 N   0  0  0  0  0  0  0  0  0  0  0  0
  1  2  1  0
  1 23  1  0
  1 26  1  1
  2  3  1  0
  2 33  1  1
  3  4  1  0
  3 24  1  6
  5  4  1  0
  4 25  1  1
  5  6  1  6
 23  5  1  0
  6 19  1  0
  8  7  1  0
  7 12  1  0
  7 21  1  1
  8  9  1  0
  8 28  1  6
  9 10  1  0
  9 27  1  1
 10 11  1  0
 10 26  1  6
 12 11  1  0
 11 20  1  1
 13 14  1  0
 13 28  1  1
 13 29  1  0
 14 15  1  0
 14 30  1  1
 15 16  1  0
 15 22  1  6
 16 17  1  0
 16 31  1  1
 17 18  1  6
 17 29  1  0
 18 32  1  0
M  CHG  5  19   1  20   1  21   1  22   1  33   1
M  END
$$$$
6np5_ligand
     RDKit          3D

 33 35  0  0  0  0  0  0  0  0999 V2000
    0.2372   -9.4452    0.3550 C   0  0  1  0  0  0  0  0  0  0  0  0
   -0.9329  -10.1405    0.2346 C   0  0  1  0  0  0  0  0  0  0  0  0
   -0.8631  -11.2778    1.1450 C   0  0  2  0  0  0  0  0  0  0  0  0
    0.5705  -12.0207    1.8232 C   0  0  2  0  0  0  0  0  0  0  0  0
    2.1145  -11.0216    1.3972 C   0  0  1  0  0  0  0  0  0  0  0  0
    3.2775  -11.7553    1.5849 C   0  0  0  0  0  0  0  0  0  0  0  0
    2.8897   -5.3468   -2.5077 C   0  0  2  0  0  0  0  0  0  0  0  0
    3.2913   -6.2361   -1.3164 C   0  0  1  0  0  0  0  0  0  0  0  0
    2.3405   -6.9157   -0.7656 C   0  0  1  0  0  0  0  0  0  0  0  0
    1.1627   -7.3244   -1.2740 C   0  0  1  0  0  0  0  0  0  0  0  0
    0.6119   -6.5889   -2.5223 C   0  0  2  0  0  0  0  0  0  0  0  0
    1.5863   -5.8127   -2.9261 C   0  0  0  0  0  0  0  0  0  0  0  0
    5.5404   -6.0876   -0.4927 C   0  0  1  0  0  0  0  0  0  0  0  0
    6.2596   -7.3118   -1.1134 C   0  0  1  0  0  0  0  0  0  0  0  0
    7.5412   -7.0873   -0.3503 C   0  0  1  0  0  0  0  0  0  0  0  0
    8.0070   -5.8939    0.9017 C   0  0  1  0  0  0  0  0  0  0  0  0
    6.8995   -5.2769    0.7674 C   0  0  1  0  0  0  0  0  0  0  0  0
    7.8934   -4.6924    1.1971 C   0  0  0  0  0  0  0  0  0  0  0  0
    4.4087  -11.9063    1.5458 N   0  0  0  0  0  0  0  0  0  0  0  0
   -0.6074   -6.9325   -2.6389 N   0  0  0  0  0  0  0  0  0  0  0  0
    4.0250   -4.4500   -2.8080 N   0  0  0  0  0  0  0  0  0  0  0  0
    8.7866   -7.9817   -0.0685 N   0  0  0  0  0  0  0  0  0  0  0  0
    2.0327   -9.8876    0.9034 O   0  0  0  0  0  0  0  0  0  0  0  0
   -2.0169  -11.9677    1.1830 O   0  0  0  0  0  0  0  0  0  0  0  0
    0.7215  -13.1652    2.3422 O   0  0  0  0  0  0  0  0  0  0  0  0
    0.6384   -8.6338   -0.6914 O   0  0  0  0  0  0  0  0  0  0  0  0
    2.7923   -7.6693    0.7846 O   0  0  0  0  0  0  0  0  0  0  0  0
    3.9998   -6.4901   -0.9906 O   0  0  0  0  0  0  0  0  0  0  0  0
    5.4886   -5.3967    0.1761 O   0  0  0  0  0  0  0  0  0  0  0  0
    6.0269   -8.3498   -1.4610 O   0  0  0  0  0  0  0  0  0  0  0  0
    8.6958   -5.3308    2.1893 O   0  0  0  0  0  0  0  0  0  0  0  0
    9.2010   -3.9077    0.2267 O   0  0  0  0  0  0  0  0  0  0  0  0
   -1.8419   -9.3290   -0.5841 N   0  0  0  0  0  0  0  0  0  0  0  0
  1  2  1  0
  1 23  1  0
  1 26  1  1
  2  3  1  0
  2 33  1  1
  3  4  1  0
  3 24  1  6
  5  4  1  0
  4 25  1  1
  5  6  1  6
 23  5  1  0
  6 19  1  0
  8  7  1  0
  7 12  1  0
  7 21  1  1
  8  9  1  0
  8 28  1  6
  9 10  1  0
  9 27  1  1
 10 11  1  0
 10 26  1  6
 12 11  1  0
 11 20  1  1
 13 14  1  0
 13 28  1  1
 13 29  1  0
 14 15  1  0
 14 30  1  1
 15 16  1  0
 15 22  1  6
 16 17  1  0
 16 31  1  1
 17 18  1  6
 17 29  1  0
 18 32  1  0
M  CHG  5  19   1  20   1  21   1  22   1  33   1
M  END
$$$$
6np5_ligand
     RDKit          3D

 33 35  0  0  0  0  0  0  0  0999 V2000
    0.4038   -9.7091    0.0824 C   0  0  2  0  0  0  0  0  0  0  0  0
   -0.9572  -10.0995    0.4193 C   0  0  1  0  0  0  0  0  0  0  0  0
   -0.6297  -11.5914    1.1234 C   0  0  2  0  0  0  0  0  0  0  0  0
    0.5898  -12.7515    0.9476 C   0  0  1  0  0  0  0  0  0  0  0  0
    1.8074  -11.5491    0.4590 C   0  0  1  0  0  0  0  0  0  0  0  0
    3.2484  -12.6301    0.2764 C   0  0  0  0  0  0  0  0  0  0  0  0
    2.8720   -4.9348   -2.2265 C   0  0  1  0  0  0  0  0  0  0  0  0
    3.2662   -5.8719   -1.0128 C   0  0  1  0  0  0  0  0  0  0  0  0
    2.5804   -6.6840   -0.3560 C   0  0  1  0  0  0  0  0  0  0  0  0
    1.2158   -7.0903   -1.0511 C   0  0  1  0  0  0  0  0  0  0  0  0
    0.7275   -6.4854   -2.1018 C   0  0  2  0  0  0  0  0  0  0  0  0
    1.5663   -5.4581   -2.4078 C   0  0  0  0  0  0  0  0  0  0  0  0
    5.8139   -5.8997   -0.7154 C   0  0  1  0  0  0  0  0  0  0  0  0
    6.4257   -7.0125   -1.2564 C   0  0  1  0  0  0  0  0  0  0  0  0
    7.9402   -6.7185   -1.1715 C   0  0  1  0  0  0  0  0  0  0  0  0
    8.3684   -5.5578    0.1573 C   0  0  2  0  0  0  0  0  0  0  0  0
    7.4618   -5.2847    0.0468 C   0  0  2  0  0  0  0  0  0  0  0  0
    8.7549   -5.2700    0.6726 C   0  0  0  0  0  0  0  0  0  0  0  0
    4.3888  -12.6609    0.0450 N   0  0  0  0  0  0  0  0  0  0  0  0
   -0.5343   -6.9078   -1.9727 N   0  0  0  0  0  0  0  0  0  0  0  0
    3.9331   -3.9074   -2.2261 N   0  0  0  0  0  0  0  0  0  0  0  0
    9.0244   -8.0498   -0.9922 N   0  0  0  0  0  0  0  0  0  0  0  0
    1.9561  -10.4556    0.2125 O   0  0  0  0  0  0  0  0  0  0  0  0
   -2.0685  -12.0411    1.4294 O   0  0  0  0  0  0  0  0  0  0  0  0
    0.8153  -13.8327    1.4421 O   0  0  0  0  0  0  0  0  0  0  0  0
    0.6963   -8.3256   -0.3742 O   0  0  0  0  0  0  0  0  0  0  0  0
    3.3027   -7.6625    0.9392 O   0  0  0  0  0  0  0  0  0  0  0  0
    4.3403   -6.0285   -0.8559 O   0  0  0  0  0  0  0  0  0  0  0  0
    6.0370   -5.4889   -0.0220 O   0  0  0  0  0  0  0  0  0  0  0  0
    5.6531   -8.3967   -1.3542 O   0  0  0  0  0  0  0  0  0  0  0  0
    9.6221   -4.9341    0.2234 O   0  0  0  0  0  0  0  0  0  0  0  0
    9.5758   -6.2509    0.1567 O   0  0  0  0  0  0  0  0  0  0  0  0
   -1.7750   -8.6408    0.3910 N   0  0  0  0  0  0  0  0  0  0  0  0
  1  2  1  0
  1 23  1  0
  1 26  1  1
  2  3  1  0
  2 33  1  1
  3  4  1  0
  3 24  1  6
  5  4  1  0
  4 25  1  1
  5  6  1  6
 23  5  1  0
  6 19  1  0
  8  7  1  0
  7 12  1  0
  7 21  1  1
  8  9  1  0
  8 28  1  6
  9 10  1  0
  9 27  1  1
 10 11  1  0
 10 26  1  6
 12 11  1  0
 11 20  1  1
 13 14  1  0
 13 28  1  1
 13 29  1  0
 14 15  1  0
 14 30  1  1
 15 16  1  0
 15 22  1  6
 16 17  1  0
 16 31  1  1
 17 18  1  6
 17 29  1  0
 18 32  1  0
M  CHG  5  19   1  20   1  21   1  22   1  33   1
M  END
$$$$
6np5_ligand
     RDKit          3D

 33 35  0  0  0  0  0  0  0  0999 V2000
    0.5199   -9.7021   -0.3423 C   0  0  2  0  0  0  0  0  0  0  0  0
   -0.8539  -10.0442    0.0598 C   0  0  1  0  0  0  0  0  0  0  0  0
   -0.6355  -11.4898    0.7563 C   0  0  2  0  0  0  0  0  0  0  0  0
    0.6479  -12.6367    0.4251 C   0  0  1  0  0  0  0  0  0  0  0  0
    1.8759  -11.5948    0.3765 C   0  0  1  0  0  0  0  0  0  0  0  0
    3.2697  -12.5803    0.2242 C   0  0  0  0  0  0  0  0  0  0  0  0
    3.0393   -5.1399   -2.6464 C   0  0  1  0  0  0  0  0  0  0  0  0
    3.4767   -5.9997   -1.4843 C   0  0  1  0  0  0  0  0  0  0  0  0
    2.9867   -7.1269   -1.3492 C   0  0  2  0  0  0  0  0  0  0  0  0
    1.4524   -7.0292   -1.2654 C   0  0  1  0  0  0  0  0  0  0  0  0
    0.9933   -6.4434   -2.2691 C   0  0  2  0  0  0  0  0  0  0  0  0
    1.6188   -5.3923   -2.5497 C   0  0  0  0  0  0  0  0  0  0  0  0
    6.0202   -5.7007   -1.1377 C   0  0  1  0  0  0  0  0  0  0  0  0
    6.7991   -6.1012   -2.0881 C   0  0  2  0  0  0  0  0  0  0  0  0
    7.8839   -4.8481   -1.9308 C   0  0  1  0  0  0  0  0  0  0  0  0
    7.9930   -4.9772   -0.0740 C   0  0  2  0  0  0  0  0  0  0  0  0
    7.4669   -5.3122   -0.1956 C   0  0  1  0  0  0  0  0  0  0  0  0
    8.8710   -5.5925    0.5503 C   0  0  0  0  0  0  0  0  0  0  0  0
    4.3006  -12.6732    0.1573 N   0  0  0  0  0  0  0  0  0  0  0  0
   -0.3528   -6.7840   -2.0766 N   0  0  0  0  0  0  0  0  0  0  0  0
    4.1999   -4.1506   -3.0210 N   0  0  0  0  0  0  0  0  0  0  0  0
    9.6274   -5.6312   -2.4761 N   0  0  0  0  0  0  0  0  0  0  0  0
    1.9847  -10.5198   -0.0704 O   0  0  0  0  0  0  0  0  0  0  0  0
   -2.0190  -11.8622    1.0075 O   0  0  0  0  0  0  0  0  0  0  0  0
    0.6873  -13.7212    1.0191 O   0  0  0  0  0  0  0  0  0  0  0  0
    0.9378   -8.3812   -0.6970 O   0  0  0  0  0  0  0  0  0  0  0  0
    3.8798   -8.0441    0.0182 O   0  0  0  0  0  0  0  0  0  0  0  0
    4.7224   -6.1432   -1.5060 O   0  0  0  0  0  0  0  0  0  0  0  0
    6.3681   -5.8845   -0.3936 O   0  0  0  0  0  0  0  0  0  0  0  0
    6.5842   -7.2399   -3.0236 O   0  0  0  0  0  0  0  0  0  0  0  0
    8.7519   -3.9025    0.5445 O   0  0  0  0  0  0  0  0  0  0  0  0
    9.5130   -6.2316   -0.3815 O   0  0  0  0  0  0  0  0  0  0  0  0
   -1.4950   -8.6222    0.3864 N   0  0  0  0  0  0  0  0  0  0  0  0
  1  2  1  0
  1 23  1  0
  1 26  1  1
  2  3  1  0
  2 33  1  1
  3  4  1  0
  3 24  1  6
  5  4  1  0
  4 25  1  1
  5  6  1  6
 23  5  1  0
  6 19  1  0
  8  7  1  0
  7 12  1  0
  7 21  1  1
  8  9  1  0
  8 28  1  6
  9 10  1  0
  9 27  1  1
 10 11  1  0
 10 26  1  6
 12 11  1  0
 11 20  1  1
 13 14  1  0
 13 28  1  6
 13 29  1  0
 14 15  1  0
 14 30  1  1
 15 16  1  0
 15 22  1  1
 16 17  1  0
 16 31  1  6
 17 18  1  1
 17 29  1  0
 18 32  1  0
M  CHG  5  19   1  20   1  21   1  22   1  33   1
M  END
$$$$
6np5_ligand
     RDKit          3D

 33 35  0  0  0  0  0  0  0  0999 V2000
    0.9017   -9.7017   -0.2012 C   0  0  2  0  0  0  0  0  0  0  0  0
   -0.3189  -10.1527    0.2411 C   0  0  1  0  0  0  0  0  0  0  0  0
    0.1568  -11.3997    1.2843 C   0  0  2  0  0  0  0  0  0  0  0  0
    1.4840  -12.2606    1.0972 C   0  0  1  0  0  0  0  0  0  0  0  0
    2.6428  -11.3034    0.7234 C   0  0  1  0  0  0  0  0  0  0  0  0
    4.0704  -12.2295    0.7352 C   0  0  0  0  0  0  0  0  0  0  0  0
    2.9407   -5.1540   -2.8097 C   0  0  1  0  0  0  0  0  0  0  0  0
    3.5209   -6.0706   -1.7172 C   0  0  1  0  0  0  0  0  0  0  0  0
    2.9165   -7.1326   -1.5165 C   0  0  2  0  0  0  0  0  0  0  0  0
    1.4649   -7.1038   -1.4435 C   0  0  1  0  0  0  0  0  0  0  0  0
    0.8188   -6.5047   -2.2663 C   0  0  2  0  0  0  0  0  0  0  0  0
    1.6356   -5.5018   -2.7024 C   0  0  0  0  0  0  0  0  0  0  0  0
    6.0627   -6.1270   -1.5264 C   0  0  1  0  0  0  0  0  0  0  0  0
    6.7993   -7.4417   -0.9808 C   0  0  1  0  0  0  0  0  0  0  0  0
    7.8442   -6.4819    0.0748 C   0  0  2  0  0  0  0  0  0  0  0  0
    8.5150   -5.6475   -0.5201 C   0  0  1  0  0  0  0  0  0  0  0  0
    7.7341   -5.4032   -1.2665 C   0  0  1  0  0  0  0  0  0  0  0  0
    9.2054   -5.6058   -1.4605 C   0  0  0  0  0  0  0  0  0  0  0  0
    5.2055  -12.3652    0.7741 N   0  0  0  0  0  0  0  0  0  0  0  0
   -0.4058   -6.9117   -2.3094 N   0  0  0  0  0  0  0  0  0  0  0  0
    4.1984   -4.2102   -3.1913 N   0  0  0  0  0  0  0  0  0  0  0  0
    9.3637   -8.0702    0.7240 N   0  0  0  0  0  0  0  0  0  0  0  0
    2.4466  -10.3793   -0.0019 O   0  0  0  0  0  0  0  0  0  0  0  0
   -1.1312  -11.8963    1.5839 O   0  0  0  0  0  0  0  0  0  0  0  0
    1.6512  -13.6176    1.5545 O   0  0  0  0  0  0  0  0  0  0  0  0
    1.0113   -8.3974   -0.6966 O   0  0  0  0  0  0  0  0  0  0  0  0
    3.8987   -8.0336   -0.2557 O   0  0  0  0  0  0  0  0  0  0  0  0
    4.7263   -6.2849   -1.5661 O   0  0  0  0  0  0  0  0  0  0  0  0
    6.6015   -5.9830   -1.4485 O   0  0  0  0  0  0  0  0  0  0  0  0
    6.3493   -8.8058   -1.2364 O   0  0  0  0  0  0  0  0  0  0  0  0
    9.5820   -4.6548   -0.2054 O   0  0  0  0  0  0  0  0  0  0  0  0
    9.6448   -5.6331   -2.0894 O   0  0  0  0  0  0  0  0  0  0  0  0
   -1.2872   -8.6572    0.2389 N   0  0  0  0  0  0  0  0  0  0  0  0
  1  2  1  0
  1 23  1  0
  1 26  1  1
  2  3  1  0
  2 33  1  1
  3  4  1  0
  3 24  1  6
  5  4  1  0
  4 25  1  1
  5  6  1  6
 23  5  1  0
  6 19  1  0
  8  7  1  0
  7 12  1  0
  7 21  1  1
  8  9  1  0
  8 28  1  6
  9 10  1  0
  9 27  1  1
 10 11  1  0
 10 26  1  6
 12 11  1  0
 11 20  1  1
 13 14  1  0
 13 28  1  1
 13 29  1  0
 14 15  1  0
 14 30  1  1
 15 16  1  0
 15 22  1  6
 16 17  1  0
 16 31  1  1
 17 18  1  6
 17 29  1  0
 18 32  1  0
M  CHG  5  19   1  20   1  21   1  22   1  33   1
M  END
$$$$
6np5_ligand
     RDKit          3D

 33 35  0  0  0  0  0  0  0  0999 V2000
    0.7447   -9.4902    0.4173 C   0  0  2  0  0  0  0  0  0  0  0  0
   -0.3897   -9.9305    1.1438 C   0  0  1  0  0  0  0  0  0  0  0  0
    0.0693  -11.2001    1.9361 C   0  0  2  0  0  0  0  0  0  0  0  0
    1.2412  -12.0586    1.3333 C   0  0  1  0  0  0  0  0  0  0  0  0
    2.3618  -11.1382    1.0342 C   0  0  1  0  0  0  0  0  0  0  0  0
    3.6934  -11.9588    0.6489 C   0  0  0  0  0  0  0  0  0  0  0  0
    3.0902   -5.3909   -2.3886 C   0  0  1  0  0  0  0  0  0  0  0  0
    3.6883   -6.1386   -1.1345 C   0  0  1  0  0  0  0  0  0  0  0  0
    3.0034   -7.3291   -1.1406 C   0  0  2  0  0  0  0  0  0  0  0  0
    1.5427   -7.0114   -0.6207 C   0  0  1  0  0  0  0  0  0  0  0  0
    0.8633   -6.3321   -1.6260 C   0  0  2  0  0  0  0  0  0  0  0  0
    1.6350   -5.3417   -1.9230 C   0  0  0  0  0  0  0  0  0  0  0  0
    6.3704   -6.3210   -1.1260 C   0  0  1  0  0  0  0  0  0  0  0  0
    7.2501   -7.5529   -0.8876 C   0  0  1  0  0  0  0  0  0  0  0  0
    8.3336   -7.3996   -0.3334 C   0  0  2  0  0  0  0  0  0  0  0  0
    8.9087   -5.7871   -0.1945 C   0  0  1  0  0  0  0  0  0  0  0  0
    7.8731   -5.2518   -0.4708 C   0  0  1  0  0  0  0  0  0  0  0  0
    9.2326   -5.0036   -0.2384 C   0  0  0  0  0  0  0  0  0  0  0  0
    4.8568  -12.0204    0.6893 N   0  0  0  0  0  0  0  0  0  0  0  0
   -0.3885   -6.2015   -1.0823 N   0  0  0  0  0  0  0  0  0  0  0  0
    4.1803   -4.4870   -2.7908 N   0  0  0  0  0  0  0  0  0  0  0  0
    9.7787   -8.3103   -0.0904 N   0  0  0  0  0  0  0  0  0  0  0  0
    2.1325  -10.2761    0.4841 O   0  0  0  0  0  0  0  0  0  0  0  0
   -1.1813  -11.8239    2.2756 O   0  0  0  0  0  0  0  0  0  0  0  0
    1.4790  -13.4359    1.5923 O   0  0  0  0  0  0  0  0  0  0  0  0
    0.9848   -8.2300    0.1055 O   0  0  0  0  0  0  0  0  0  0  0  0
    3.9308   -8.2468   -0.0206 O   0  0  0  0  0  0  0  0  0  0  0  0
    4.9704   -6.5114   -1.2260 O   0  0  0  0  0  0  0  0  0  0  0  0
    6.7430   -5.8480   -0.6160 O   0  0  0  0  0  0  0  0  0  0  0  0
    7.0472   -8.7499   -0.9577 O   0  0  0  0  0  0  0  0  0  0  0  0
    9.7660   -4.7978    0.7113 O   0  0  0  0  0  0  0  0  0  0  0  0
   10.1989   -5.1189   -0.6802 O   0  0  0  0  0  0  0  0  0  0  0  0
   -1.0937   -8.6357    1.6595 N   0  0  0  0  0  0  0  0  0  0  0  0
  1  2  1  0
  1 23  1  0
  1 26  1  1
  2  3  1  0
  2 33  1  1
  3  4  1  0
  3 24  1  6
  5  4  1  0
  4 25  1  1
  5  6  1  6
 23  5  1  0
  6 19  1  0
  8  7  1  0
  7 12  1  0
  7 21  1  1
  8  9  1  0
  8 28  1  6
  9 10  1  0
  9 27  1  1
 10 11  1  0
 10 26  1  6
 12 11  1  0
 11 20  1  1
 13 14  1  0
 13 28  1  1
 13 29  1  0
 14 15  1  0
 14 30  1  1
 15 16  1  0
 15 22  1  6
 16 17  1  0
 16 31  1  1
 17 18  1  6
 17 29  1  0
 18 32  1  0
M  CHG  5  19   1  20   1  21   1  22   1  33   1
M  END
$$$$
6np5_ligand
     RDKit          3D

 33 35  0  0  0  0  0  0  0  0999 V2000
    0.5075   -9.6934    0.2027 C   0  0  2  0  0  0  0  0  0  0  0  0
   -0.6041  -10.1967    0.8936 C   0  0  1  0  0  0  0  0  0  0  0  0
   -0.1619  -11.3014    1.7512 C   0  0  2  0  0  0  0  0  0  0  0  0
    0.9977  -12.3444    1.2665 C   0  0  1  0  0  0  0  0  0  0  0  0
    2.1023  -11.2061    0.9970 C   0  0  1  0  0  0  0  0  0  0  0  0
    3.4975  -12.0804    0.7586 C   0  0  0  0  0  0  0  0  0  0  0  0
    2.8521   -5.3812   -2.3080 C   0  0  1  0  0  0  0  0  0  0  0  0
    3.4255   -6.1909   -1.1005 C   0  0  1  0  0  0  0  0  0  0  0  0
    2.7422   -7.3698   -1.2973 C   0  0  2  0  0  0  0  0  0  0  0  0
    1.3086   -7.1433   -0.7512 C   0  0  1  0  0  0  0  0  0  0  0  0
    0.6366   -6.4400   -1.7435 C   0  0  2  0  0  0  0  0  0  0  0  0
    1.3470   -5.3661   -1.8656 C   0  0  0  0  0  0  0  0  0  0  0  0
    6.1232   -6.3404   -0.9627 C   0  0  1  0  0  0  0  0  0  0  0  0
    7.1333   -7.5282   -0.7357 C   0  0  2  0  0  0  0  0  0  0  0  0
    8.3133   -7.7715   -0.6517 C   0  0  1  0  0  0  0  0  0  0  0  0
    8.4877   -5.8115    0.5051 C   0  0  2  0  0  0  0  0  0  0  0  0
    7.8400   -5.4930   -0.1442 C   0  0  2  0  0  0  0  0  0  0  0  0
    9.1112   -5.3358    0.6146 C   0  0  0  0  0  0  0  0  0  0  0  0
    4.5924  -12.0481    0.8873 N   0  0  0  0  0  0  0  0  0  0  0  0
   -0.6121   -6.2802   -1.3584 N   0  0  0  0  0  0  0  0  0  0  0  0
    3.8741   -4.2959   -2.6252 N   0  0  0  0  0  0  0  0  0  0  0  0
    8.8125   -9.3104   -0.3061 N   0  0  0  0  0  0  0  0  0  0  0  0
    1.9101  -10.4603    0.3053 O   0  0  0  0  0  0  0  0  0  0  0  0
   -1.2906  -12.0552    2.1212 O   0  0  0  0  0  0  0  0  0  0  0  0
    1.3960  -13.5309    1.8769 O   0  0  0  0  0  0  0  0  0  0  0  0
    0.7561   -8.3496   -0.0221 O   0  0  0  0  0  0  0  0  0  0  0  0
    3.5922   -8.4053   -0.0959 O   0  0  0  0  0  0  0  0  0  0  0  0
    4.6953   -6.6188   -1.1865 O   0  0  0  0  0  0  0  0  0  0  0  0
    6.5348   -5.8993   -0.2086 O   0  0  0  0  0  0  0  0  0  0  0  0
    6.6350   -8.8968   -1.4673 O   0  0  0  0  0  0  0  0  0  0  0  0
    9.8855   -5.1442    0.8009 O   0  0  0  0  0  0  0  0  0  0  0  0
   10.0111   -5.9245    0.1764 O   0  0  0  0  0  0  0  0  0  0  0  0
   -1.4296   -8.9229    1.3628 N   0  0  0  0  0  0  0  0  0  0  0  0
  1  2  1  0
  1 23  1  0
  1 26  1  1
  2  3  1  0
  2 33  1  1
  3  4  1  0
  3 24  1  6
  5  4  1  0
  4 25  1  1
  5  6  1  6
 23  5  1  0
  6 19  1  0
  8  7  1  0
  7 12  1  0
  7 21  1  1
  8  9  1  0
  8 28  1  6
  9 10  1  0
  9 27  1  1
 10 11  1  0
 10 26  1  6
 12 11  1  0
 11 20  1  1
 13 14  1  0
 13 28  1  1
 13 29  1  0
 14 15  1  0
 14 30  1  1
 15 16  1  0
 15 22  1  6
 16 17  1  0
 16 31  1  1
 17 18  1  6
 17 29  1  0
 18 32  1  0
M  CHG  5  19   1  20   1  21   1  22   1  33   1
M  END
$$$$
6np5_ligand
     RDKit          3D

 33 35  0  0  0  0  0  0  0  0999 V2000
    0.9108   -9.7238    0.2253 C   0  0  2  0  0  0  0  0  0  0  0  0
   -0.1758  -10.1456    1.0180 C   0  0  1  0  0  0  0  0  0  0  0  0
    0.2704  -11.2906    1.9428 C   0  0  2  0  0  0  0  0  0  0  0  0
    1.3184  -12.3835    1.4701 C   0  0  1  0  0  0  0  0  0  0  0  0
    2.4533  -11.3223    1.1420 C   0  0  1  0  0  0  0  0  0  0  0  0
    3.8391  -12.1637    0.7110 C   0  0  0  0  0  0  0  0  0  0  0  0
    3.0673   -5.3350   -2.3626 C   0  0  1  0  0  0  0  0  0  0  0  0
    3.6347   -6.1321   -1.1515 C   0  0  1  0  0  0  0  0  0  0  0  0
    2.9677   -7.4522   -1.3232 C   0  0  2  0  0  0  0  0  0  0  0  0
    1.5164   -7.3378   -0.7990 C   0  0  1  0  0  0  0  0  0  0  0  0
    0.8241   -6.5796   -1.9081 C   0  0  2  0  0  0  0  0  0  0  0  0
    1.5077   -5.4256   -1.9223 C   0  0  0  0  0  0  0  0  0  0  0  0
    6.2313   -6.4141   -0.9640 C   0  0  1  0  0  0  0  0  0  0  0  0
    6.8990   -7.6017    0.0231 C   0  0  2  0  0  0  0  0  0  0  0  0
    7.9170   -7.6200    0.5938 C   0  0  2  0  0  0  0  0  0  0  0  0
    8.7323   -5.8251    0.3631 C   0  0  2  0  0  0  0  0  0  0  0  0
    8.0318   -5.3157   -0.7165 C   0  0  1  0  0  0  0  0  0  0  0  0
    9.2914   -5.2140   -0.6784 C   0  0  0  0  0  0  0  0  0  0  0  0
    5.0796  -11.9859    0.5389 N   0  0  0  0  0  0  0  0  0  0  0  0
   -0.4331   -6.8009   -1.6541 N   0  0  0  0  0  0  0  0  0  0  0  0
    3.9259   -4.1434   -2.5504 N   0  0  0  0  0  0  0  0  0  0  0  0
    8.7487   -8.7121    1.1056 N   0  0  0  0  0  0  0  0  0  0  0  0
    2.1992  -10.5372    0.3597 O   0  0  0  0  0  0  0  0  0  0  0  0
   -0.8510  -12.0529    2.4046 O   0  0  0  0  0  0  0  0  0  0  0  0
    1.6637  -13.4728    2.2938 O   0  0  0  0  0  0  0  0  0  0  0  0
    1.1185   -8.3608   -0.1039 O   0  0  0  0  0  0  0  0  0  0  0  0
    3.8025   -8.4188   -0.1841 O   0  0  0  0  0  0  0  0  0  0  0  0
    4.9160   -6.4663   -1.1565 O   0  0  0  0  0  0  0  0  0  0  0  0
    6.7848   -5.7616   -0.7698 O   0  0  0  0  0  0  0  0  0  0  0  0
    6.3593   -8.9021   -0.0942 O   0  0  0  0  0  0  0  0  0  0  0  0
    9.8805   -4.8751    0.3408 O   0  0  0  0  0  0  0  0  0  0  0  0
    9.7804   -6.1023   -1.7183 O   0  0  0  0  0  0  0  0  0  0  0  0
   -1.0350   -8.9706    1.4454 N   0  0  0  0  0  0  0  0  0  0  0  0
  1  2  1  0
  1 23  1  0
  1 26  1  1
  2  3  1  0
  2 33  1  1
  3  4  1  0
  3 24  1  6
  5  4  1  0
  4 25  1  1
  5  6  1  6
 23  5  1  0
  6 19  1  0
  8  7  1  0
  7 12  1  0
  7 21  1  1
  8  9  1  0
  8 28  1  6
  9 10  1  0
  9 27  1  1
 10 11  1  0
 10 26  1  6
 12 11  1  0
 11 20  1  1
 13 14  1  0
 13 28  1  1
 13 29  1  0
 14 15  1  0
 14 30  1  1
 15 16  1  0
 15 22  1  6
 16 17  1  0
 16 31  1  1
 17 18  1  6
 17 29  1  0
 18 32  1  0
M  CHG  5  19   1  20   1  21   1  22   1  33   1
M  END
$$$$
6np5_ligand
     RDKit          3D

 33 35  0  0  0  0  0  0  0  0999 V2000
    0.8811   -9.5829    0.0929 C   0  0  2  0  0  0  0  0  0  0  0  0
   -0.3031  -10.0955    0.8027 C   0  0  1  0  0  0  0  0  0  0  0  0
    0.1642  -11.2273    1.7485 C   0  0  2  0  0  0  0  0  0  0  0  0
    1.3781  -12.1601    1.4645 C   0  0  1  0  0  0  0  0  0  0  0  0
    2.4494  -10.9899    1.2185 C   0  0  1  0  0  0  0  0  0  0  0  0
    3.9138  -11.7543    1.0166 C   0  0  0  0  0  0  0  0  0  0  0  0
    3.0201   -5.2522   -2.4738 C   0  0  1  0  0  0  0  0  0  0  0  0
    3.5661   -6.0430   -1.2331 C   0  0  1  0  0  0  0  0  0  0  0  0
    2.8874   -7.4160   -1.3956 C   0  0  2  0  0  0  0  0  0  0  0  0
    1.4645   -7.1853   -0.9791 C   0  0  1  0  0  0  0  0  0  0  0  0
    0.8267   -6.4731   -2.0415 C   0  0  2  0  0  0  0  0  0  0  0  0
    1.5290   -5.2690   -2.0477 C   0  0  0  0  0  0  0  0  0  0  0  0
    6.0426   -6.6133   -1.1846 C   0  0  1  0  0  0  0  0  0  0  0  0
    6.7753   -7.5674   -0.1389 C   0  0  1  0  0  0  0  0  0  0  0  0
    7.6088   -7.5258    0.6030 C   0  0  2  0  0  0  0  0  0  0  0  0
    8.5869   -6.2663    0.1085 C   0  0  1  0  0  0  0  0  0  0  0  0
    7.7964   -5.3622   -0.9060 C   0  0  1  0  0  0  0  0  0  0  0  0
    9.0906   -4.9900   -1.3115 C   0  0  0  0  0  0  0  0  0  0  0  0
    5.1387  -11.3244    1.3090 N   0  0  0  0  0  0  0  0  0  0  0  0
   -0.4929   -6.6120   -1.7759 N   0  0  0  0  0  0  0  0  0  0  0  0
    3.8782   -4.0496   -2.6631 N   0  0  0  0  0  0  0  0  0  0  0  0
    8.4238   -8.5400    1.3134 N   0  0  0  0  0  0  0  0  0  0  0  0
    2.2139  -10.1865    0.4732 O   0  0  0  0  0  0  0  0  0  0  0  0
   -1.0369  -12.0401    2.0898 O   0  0  0  0  0  0  0  0  0  0  0  0
    1.6628  -13.2162    2.2491 O   0  0  0  0  0  0  0  0  0  0  0  0
    0.9533   -8.2297   -0.2101 O   0  0  0  0  0  0  0  0  0  0  0  0
    3.6938   -8.2932   -0.1973 O   0  0  0  0  0  0  0  0  0  0  0  0
    4.7596   -6.5121   -1.2561 O   0  0  0  0  0  0  0  0  0  0  0  0
    6.7194   -5.6995   -1.2778 O   0  0  0  0  0  0  0  0  0  0  0  0
    5.8609   -8.7955    0.0810 O   0  0  0  0  0  0  0  0  0  0  0  0
    9.7155   -5.5006    0.6309 O   0  0  0  0  0  0  0  0  0  0  0  0
    9.5762   -5.7361   -2.0367 O   0  0  0  0  0  0  0  0  0  0  0  0
   -1.2331   -9.0066    1.1041 N   0  0  0  0  0  0  0  0  0  0  0  0
  1  2  1  0
  1 23  1  0
  1 26  1  1
  2  3  1  0
  2 33  1  1
  3  4  1  0
  3 24  1  6
  5  4  1  0
  4 25  1  1
  5  6  1  6
 23  5  1  0
  6 19  1  0
  8  7  1  0
  7 12  1  0
  7 21  1  1
  8  9  1  0
  8 28  1  6
  9 10  1  0
  9 27  1  1
 10 11  1  0
 10 26  1  6
 12 11  1  0
 11 20  1  1
 13 14  1  0
 13 28  1  1
 13 29  1  0
 14 15  1  0
 14 30  1  1
 15 16  1  0
 15 22  1  6
 16 17  1  0
 16 31  1  1
 17 18  1  6
 17 29  1  0
 18 32  1  0
M  CHG  5  19   1  20   1  21   1  22   1  33   1
M  END
$$$$
6np5_ligand
     RDKit          3D

 33 35  0  0  0  0  0  0  0  0999 V2000
    1.3046   -9.6871    0.0229 C   0  0  2  0  0  0  0  0  0  0  0  0
    0.2021  -10.3592    0.6851 C   0  0  1  0  0  0  0  0  0  0  0  0
    0.6850  -11.2620    1.8684 C   0  0  2  0  0  0  0  0  0  0  0  0
    1.8301  -12.1585    1.6196 C   0  0  1  0  0  0  0  0  0  0  0  0
    2.8623  -10.9832    1.3708 C   0  0  1  0  0  0  0  0  0  0  0  0
    4.3525  -11.6476    1.3064 C   0  0  0  0  0  0  0  0  0  0  0  0
    3.2805   -5.1843   -2.2873 C   0  0  1  0  0  0  0  0  0  0  0  0
    3.7136   -5.8569   -1.0078 C   0  0  1  0  0  0  0  0  0  0  0  0
    3.1613   -7.2344   -1.0668 C   0  0  2  0  0  0  0  0  0  0  0  0
    1.7233   -7.2524   -1.0108 C   0  0  1  0  0  0  0  0  0  0  0  0
    1.2076   -6.6704   -2.0837 C   0  0  2  0  0  0  0  0  0  0  0  0
    1.6956   -5.4041   -2.1584 C   0  0  0  0  0  0  0  0  0  0  0  0
    6.0939   -6.3395   -0.8816 C   0  0  1  0  0  0  0  0  0  0  0  0
    6.7888   -7.4029    0.0383 C   0  0  1  0  0  0  0  0  0  0  0  0
    7.6599   -7.3023    0.7838 C   0  0  2  0  0  0  0  0  0  0  0  0
    8.6321   -6.3551    0.1578 C   0  0  1  0  0  0  0  0  0  0  0  0
    7.8091   -5.2213   -0.3875 C   0  0  1  0  0  0  0  0  0  0  0  0
    9.0669   -4.5197   -0.8569 C   0  0  0  0  0  0  0  0  0  0  0  0
    5.5104  -10.9988    1.4210 N   0  0  0  0  0  0  0  0  0  0  0  0
   -0.2055   -6.8009   -2.0388 N   0  0  0  0  0  0  0  0  0  0  0  0
    4.0106   -3.7889   -2.3206 N   0  0  0  0  0  0  0  0  0  0  0  0
    8.2905   -8.4104    1.4331 N   0  0  0  0  0  0  0  0  0  0  0  0
    2.5887  -10.3445    0.4625 O   0  0  0  0  0  0  0  0  0  0  0  0
   -0.5044  -12.2433    2.2160 O   0  0  0  0  0  0  0  0  0  0  0  0
    2.1909  -13.0838    2.5433 O   0  0  0  0  0  0  0  0  0  0  0  0
    1.2667   -8.3636   -0.2380 O   0  0  0  0  0  0  0  0  0  0  0  0
    3.8019   -8.0816    0.2432 O   0  0  0  0  0  0  0  0  0  0  0  0
    4.9087   -6.2873   -1.0763 O   0  0  0  0  0  0  0  0  0  0  0  0
    6.7481   -5.3311   -0.9324 O   0  0  0  0  0  0  0  0  0  0  0  0
    5.7361   -8.5292    0.3529 O   0  0  0  0  0  0  0  0  0  0  0  0
    9.6593   -5.8593    1.1284 O   0  0  0  0  0  0  0  0  0  0  0  0
    9.4233   -4.8106   -1.7951 O   0  0  0  0  0  0  0  0  0  0  0  0
   -0.9438   -9.2744    0.8496 N   0  0  0  0  0  0  0  0  0  0  0  0
  1  2  1  0
  1 23  1  0
  1 26  1  1
  2  3  1  0
  2 33  1  1
  3  4  1  0
  3 24  1  6
  5  4  1  0
  4 25  1  1
  5  6  1  6
 23  5  1  0
  6 19  1  0
  8  7  1  0
  7 12  1  0
  7 21  1  1
  8  9  1  0
  8 28  1  6
  9 10  1  0
  9 27  1  1
 10 11  1  0
 10 26  1  6
 12 11  1  0
 11 20  1  1
 13 14  1  0
 13 28  1  1
 13 29  1  0
 14 15  1  0
 14 30  1  1
 15 16  1  0
 15 22  1  6
 16 17  1  0
 16 31  1  1
 17 18  1  6
 17 29  1  0
 18 32  1  0
M  CHG  5  19   1  20   1  21   1  22   1  33   1
M  END
$$$$
6np5_ligand
     RDKit          3D

 33 35  0  0  0  0  0  0  0  0999 V2000
    1.1713   -9.6630   -0.1169 C   0  0  2  0  0  0  0  0  0  0  0  0
    0.0793  -10.3166    0.6119 C   0  0  1  0  0  0  0  0  0  0  0  0
    0.6118  -11.0687    1.8608 C   0  0  2  0  0  0  0  0  0  0  0  0
    1.8437  -11.9634    1.6298 C   0  0  1  0  0  0  0  0  0  0  0  0
    2.8520  -10.7961    1.2171 C   0  0  1  0  0  0  0  0  0  0  0  0
    4.2857  -11.5222    1.0627 C   0  0  0  0  0  0  0  0  0  0  0  0
    3.2573   -5.4184   -2.5772 C   0  0  1  0  0  0  0  0  0  0  0  0
    3.6390   -5.9647   -1.1994 C   0  0  1  0  0  0  0  0  0  0  0  0
    3.1173   -7.3607   -1.1728 C   0  0  2  0  0  0  0  0  0  0  0  0
    1.6075   -7.3161   -1.1448 C   0  0  1  0  0  0  0  0  0  0  0  0
    1.1536   -6.8359   -2.3684 C   0  0  2  0  0  0  0  0  0  0  0  0
    1.7031   -5.5559   -2.4286 C   0  0  0  0  0  0  0  0  0  0  0  0
    6.0410   -6.3374   -0.9647 C   0  0  1  0  0  0  0  0  0  0  0  0
    6.5509   -7.3252    0.1019 C   0  0  1  0  0  0  0  0  0  0  0  0
    7.4002   -7.0884    0.9499 C   0  0  2  0  0  0  0  0  0  0  0  0
    8.5857   -6.2473    0.3932 C   0  0  1  0  0  0  0  0  0  0  0  0
    7.8452   -5.1948   -0.3935 C   0  0  1  0  0  0  0  0  0  0  0  0
    9.2072   -4.4976   -1.0202 C   0  0  0  0  0  0  0  0  0  0  0  0
    5.4156  -10.6518    0.9044 N   0  0  0  0  0  0  0  0  0  0  0  0
   -0.3135   -6.8109   -2.1039 N   0  0  0  0  0  0  0  0  0  0  0  0
    4.0640   -4.0843   -2.6458 N   0  0  0  0  0  0  0  0  0  0  0  0
    7.9298   -8.2893    1.7707 N   0  0  0  0  0  0  0  0  0  0  0  0
    2.4830  -10.2856    0.2455 O   0  0  0  0  0  0  0  0  0  0  0  0
   -0.5591  -12.0720    2.3482 O   0  0  0  0  0  0  0  0  0  0  0  0
    2.3414  -12.7036    2.6951 O   0  0  0  0  0  0  0  0  0  0  0  0
    1.1513   -8.3593   -0.3157 O   0  0  0  0  0  0  0  0  0  0  0  0
    3.5407   -7.9248    0.3337 O   0  0  0  0  0  0  0  0  0  0  0  0
    4.9983   -6.3221   -1.1384 O   0  0  0  0  0  0  0  0  0  0  0  0
    6.7958   -5.3065   -1.1254 O   0  0  0  0  0  0  0  0  0  0  0  0
    5.7172   -8.3393    0.3403 O   0  0  0  0  0  0  0  0  0  0  0  0
    9.4549   -5.6943    1.5055 O   0  0  0  0  0  0  0  0  0  0  0  0
    9.3311   -4.6566   -2.0517 O   0  0  0  0  0  0  0  0  0  0  0  0
   -1.0541   -9.3452    0.8511 N   0  0  0  0  0  0  0  0  0  0  0  0
  1  2  1  0
  1 23  1  0
  1 26  1  1
  2  3  1  0
  2 33  1  1
  3  4  1  0
  3 24  1  6
  5  4  1  0
  4 25  1  1
  5  6  1  6
 23  5  1  0
  6 19  1  0
  8  7  1  0
  7 12  1  0
  7 21  1  1
  8  9  1  0
  8 28  1  6
  9 10  1  0
  9 27  1  1
 10 11  1  0
 10 26  1  6
 12 11  1  0
 11 20  1  1
 13 14  1  0
 13 28  1  1
 13 29  1  0
 14 15  1  0
 14 30  1  1
 15 16  1  0
 15 22  1  6
 16 17  1  0
 16 31  1  1
 17 18  1  6
 17 29  1  0
 18 32  1  0
M  CHG  5  19   1  20   1  21   1  22   1  33   1
M  END
$$$$
6np5_ligand
     RDKit          3D

 33 35  0  0  0  0  0  0  0  0999 V2000
    1.2297   -9.6472   -0.0248 C   0  0  2  0  0  0  0  0  0  0  0  0
    0.1832  -10.2718    0.7645 C   0  0  1  0  0  0  0  0  0  0  0  0
    0.7523  -10.9586    2.0677 C   0  0  2  0  0  0  0  0  0  0  0  0
    1.9566  -11.9385    1.7428 C   0  0  1  0  0  0  0  0  0  0  0  0
    2.9205  -10.8354    1.2405 C   0  0  1  0  0  0  0  0  0  0  0  0
    4.3281  -11.5726    1.0409 C   0  0  0  0  0  0  0  0  0  0  0  0
    3.3302   -5.2866   -2.3924 C   0  0  1  0  0  0  0  0  0  0  0  0
    3.7868   -5.9399   -1.1044 C   0  0  1  0  0  0  0  0  0  0  0  0
    3.1315   -7.3746   -1.2359 C   0  0  2  0  0  0  0  0  0  0  0  0
    1.6903   -7.3212   -0.9784 C   0  0  1  0  0  0  0  0  0  0  0  0
    1.1517   -6.6850   -2.1378 C   0  0  2  0  0  0  0  0  0  0  0  0
    1.8308   -5.3651   -2.1728 C   0  0  0  0  0  0  0  0  0  0  0  0
    6.1703   -6.3529   -0.9546 C   0  0  1  0  0  0  0  0  0  0  0  0
    6.5572   -7.4521    0.0268 C   0  0  1  0  0  0  0  0  0  0  0  0
    7.5025   -7.3537    0.7951 C   0  0  2  0  0  0  0  0  0  0  0  0
    8.6671   -6.4216    0.4947 C   0  0  1  0  0  0  0  0  0  0  0  0
    7.9940   -5.2772   -0.1763 C   0  0  1  0  0  0  0  0  0  0  0  0
    9.2481   -4.5204   -0.6242 C   0  0  0  0  0  0  0  0  0  0  0  0
    5.4599  -10.7843    0.9017 N   0  0  0  0  0  0  0  0  0  0  0  0
   -0.3162   -6.6331   -1.7507 N   0  0  0  0  0  0  0  0  0  0  0  0
    4.2594   -4.0344   -2.4318 N   0  0  0  0  0  0  0  0  0  0  0  0
    7.9306   -8.5953    1.5585 N   0  0  0  0  0  0  0  0  0  0  0  0
    2.5346  -10.3306    0.2314 O   0  0  0  0  0  0  0  0  0  0  0  0
   -0.3783  -11.8829    2.6267 O   0  0  0  0  0  0  0  0  0  0  0  0
    2.4506  -12.6646    2.7941 O   0  0  0  0  0  0  0  0  0  0  0  0
    1.2938   -8.2905   -0.1283 O   0  0  0  0  0  0  0  0  0  0  0  0
    3.6924   -8.0860    0.1513 O   0  0  0  0  0  0  0  0  0  0  0  0
    5.1032   -6.2040   -1.1531 O   0  0  0  0  0  0  0  0  0  0  0  0
    6.9586   -5.3044   -0.9031 O   0  0  0  0  0  0  0  0  0  0  0  0
    5.6089   -8.3633    0.1342 O   0  0  0  0  0  0  0  0  0  0  0  0
    9.3923   -6.0475    1.7475 O   0  0  0  0  0  0  0  0  0  0  0  0
    9.4329   -4.8990   -1.7227 O   0  0  0  0  0  0  0  0  0  0  0  0
   -0.9427   -9.2845    1.0408 N   0  0  0  0  0  0  0  0  0  0  0  0
  1  2  1  0
  1 23  1  0
  1 26  1  1
  2  3  1  0
  2 33  1  1
  3  4  1  0
  3 24  1  6
  5  4  1  0
  4 25  1  1
  5  6  1  6
 23  5  1  0
  6 19  1  0
  8  7  1  0
  7 12  1  0
  7 21  1  1
  8  9  1  0
  8 28  1  6
  9 10  1  0
  9 27  1  1
 10 11  1  0
 10 26  1  6
 12 11  1  0
 11 20  1  1
 13 14  1  0
 13 28  1  1
 13 29  1  0
 14 15  1  0
 14 30  1  1
 15 16  1  0
 15 22  1  6
 16 17  1  0
 16 31  1  1
 17 18  1  6
 17 29  1  0
 18 32  1  0
M  CHG  5  19   1  20   1  21   1  22   1  33   1
M  END
$$$$
6np5_ligand
     RDKit          3D

 33 35  0  0  0  0  0  0  0  0999 V2000
    1.1675   -9.2647    0.2620 C   0  0  2  0  0  0  0  0  0  0  0  0
    0.1323   -9.7362    1.1548 C   0  0  1  0  0  0  0  0  0  0  0  0
    0.6960  -10.4750    2.3912 C   0  0  2  0  0  0  0  0  0  0  0  0
    1.7468  -11.6049    2.0111 C   0  0  1  0  0  0  0  0  0  0  0  0
    2.7945  -10.6194    1.4558 C   0  0  1  0  0  0  0  0  0  0  0  0
    4.0743  -11.5577    1.2177 C   0  0  0  0  0  0  0  0  0  0  0  0
    3.3278   -5.2367   -2.2689 C   0  0  1  0  0  0  0  0  0  0  0  0
    3.7991   -5.8613   -0.9900 C   0  0  1  0  0  0  0  0  0  0  0  0
    3.0893   -7.2351   -1.0837 C   0  0  2  0  0  0  0  0  0  0  0  0
    1.6856   -7.0685   -0.7252 C   0  0  1  0  0  0  0  0  0  0  0  0
    1.0752   -6.4478   -1.8192 C   0  0  2  0  0  0  0  0  0  0  0  0
    1.7603   -5.1452   -1.9283 C   0  0  0  0  0  0  0  0  0  0  0  0
    6.2237   -6.2436   -0.8420 C   0  0  1  0  0  0  0  0  0  0  0  0
    6.6524   -7.3773    0.0695 C   0  0  1  0  0  0  0  0  0  0  0  0
    7.6420   -7.1944    0.9097 C   0  0  2  0  0  0  0  0  0  0  0  0
    8.7492   -6.0751    0.7238 C   0  0  1  0  0  0  0  0  0  0  0  0
    7.9792   -4.9667    0.1394 C   0  0  1  0  0  0  0  0  0  0  0  0
    9.0959   -3.9874   -0.2640 C   0  0  0  0  0  0  0  0  0  0  0  0
    5.2799  -10.8766    1.0167 N   0  0  0  0  0  0  0  0  0  0  0  0
   -0.3350   -6.0932   -1.3521 N   0  0  0  0  0  0  0  0  0  0  0  0
    4.3094   -4.0300   -2.3828 N   0  0  0  0  0  0  0  0  0  0  0  0
    8.1702   -8.3843    1.7773 N   0  0  0  0  0  0  0  0  0  0  0  0
    2.3853  -10.0693    0.3780 O   0  0  0  0  0  0  0  0  0  0  0  0
   -0.4562  -11.2680    3.0375 O   0  0  0  0  0  0  0  0  0  0  0  0
    2.1450  -12.3536    3.0421 O   0  0  0  0  0  0  0  0  0  0  0  0
    1.3418   -7.9776    0.1412 O   0  0  0  0  0  0  0  0  0  0  0  0
    3.6728   -7.9643    0.2338 O   0  0  0  0  0  0  0  0  0  0  0  0
    5.1322   -6.1763   -1.0476 O   0  0  0  0  0  0  0  0  0  0  0  0
    6.9757   -5.1130   -0.7144 O   0  0  0  0  0  0  0  0  0  0  0  0
    5.7760   -8.2749    0.1402 O   0  0  0  0  0  0  0  0  0  0  0  0
    9.3399   -5.6318    1.9993 O   0  0  0  0  0  0  0  0  0  0  0  0
    9.2665   -4.1409   -1.3642 O   0  0  0  0  0  0  0  0  0  0  0  0
   -0.8159   -8.6047    1.5730 N   0  0  0  0  0  0  0  0  0  0  0  0
  1  2  1  0
  1 23  1  0
  1 26  1  1
  2  3  1  0
  2 33  1  1
  3  4  1  0
  3 24  1  6
  5  4  1  0
  4 25  1  1
  5  6  1  6
 23  5  1  0
  6 19  1  0
  8  7  1  0
  7 12  1  0
  7 21  1  1
  8  9  1  0
  8 28  1  6
  9 10  1  0
  9 27  1  1
 10 11  1  0
 10 26  1  6
 12 11  1  0
 11 20  1  1
 13 14  1  0
 13 28  1  1
 13 29  1  0
 14 15  1  0
 14 30  1  1
 15 16  1  0
 15 22  1  6
 16 17  1  0
 16 31  1  1
 17 18  1  6
 17 29  1  0
 18 32  1  0
M  CHG  5  19   1  20   1  21   1  22   1  33   1
M  END
$$$$
6np5_ligand
     RDKit          3D

 33 35  0  0  0  0  0  0  0  0999 V2000
    1.2058   -9.2127    0.1884 C   0  0  2  0  0  0  0  0  0  0  0  0
    0.2372   -9.6784    1.1386 C   0  0  1  0  0  0  0  0  0  0  0  0
    0.9089  -10.2324    2.4102 C   0  0  2  0  0  0  0  0  0  0  0  0
    1.9278  -11.3627    2.0461 C   0  0  1  0  0  0  0  0  0  0  0  0
    2.8839  -10.5163    1.3009 C   0  0  1  0  0  0  0  0  0  0  0  0
    4.1063  -11.4969    1.0013 C   0  0  0  0  0  0  0  0  0  0  0  0
    3.2954   -5.3102   -2.4721 C   0  0  1  0  0  0  0  0  0  0  0  0
    3.7959   -5.9313   -1.1898 C   0  0  1  0  0  0  0  0  0  0  0  0
    3.0204   -7.2836   -1.1995 C   0  0  2  0  0  0  0  0  0  0  0  0
    1.6990   -7.0763   -0.8057 C   0  0  1  0  0  0  0  0  0  0  0  0
    1.0247   -6.4328   -1.8677 C   0  0  2  0  0  0  0  0  0  0  0  0
    1.7997   -5.1401   -2.0716 C   0  0  0  0  0  0  0  0  0  0  0  0
    6.1715   -6.4485   -0.9611 C   0  0  1  0  0  0  0  0  0  0  0  0
    6.5844   -7.4441    0.1562 C   0  0  1  0  0  0  0  0  0  0  0  0
    7.5924   -7.0923    0.9812 C   0  0  2  0  0  0  0  0  0  0  0  0
    8.6730   -6.1362    0.6461 C   0  0  1  0  0  0  0  0  0  0  0  0
    7.9283   -5.1170   -0.0952 C   0  0  1  0  0  0  0  0  0  0  0  0
    9.1495   -4.1719   -0.6299 C   0  0  0  0  0  0  0  0  0  0  0  0
    5.3490  -10.9474    0.4315 N   0  0  0  0  0  0  0  0  0  0  0  0
   -0.2948   -5.9865   -1.3330 N   0  0  0  0  0  0  0  0  0  0  0  0
    4.2908   -4.1110   -2.6257 N   0  0  0  0  0  0  0  0  0  0  0  0
    8.0822   -8.2681    1.9951 N   0  0  0  0  0  0  0  0  0  0  0  0
    2.3871  -10.0900    0.2224 O   0  0  0  0  0  0  0  0  0  0  0  0
   -0.2174  -10.9326    3.2086 O   0  0  0  0  0  0  0  0  0  0  0  0
    2.5278  -11.9144    3.1659 O   0  0  0  0  0  0  0  0  0  0  0  0
    1.3697   -7.9226    0.0842 O   0  0  0  0  0  0  0  0  0  0  0  0
    3.6063   -7.9884    0.1222 O   0  0  0  0  0  0  0  0  0  0  0  0
    5.0879   -6.3309   -1.1816 O   0  0  0  0  0  0  0  0  0  0  0  0
    6.9933   -5.3576   -0.9586 O   0  0  0  0  0  0  0  0  0  0  0  0
    5.5471   -8.3878    0.2197 O   0  0  0  0  0  0  0  0  0  0  0  0
    9.2631   -5.7049    1.8492 O   0  0  0  0  0  0  0  0  0  0  0  0
    9.2890   -4.3107   -1.6497 O   0  0  0  0  0  0  0  0  0  0  0  0
   -0.8205   -8.5808    1.5137 N   0  0  0  0  0  0  0  0  0  0  0  0
  1  2  1  0
  1 23  1  0
  1 26  1  1
  2  3  1  0
  2 33  1  1
  3  4  1  0
  3 24  1  1
  5  4  1  0
  4 25  1  1
  5  6  1  6
 23  5  1  0
  6 19  1  0
  8  7  1  0
  7 12  1  0
  7 21  1  1
  8  9  1  0
  8 28  1  6
  9 10  1  0
  9 27  1  1
 10 11  1  0
 10 26  1  6
 12 11  1  0
 11 20  1  1
 13 14  1  0
 13 28  1  1
 13 29  1  0
 14 15  1  0
 14 30  1  1
 15 16  1  0
 15 22  1  6
 16 17  1  0
 16 31  1  1
 17 18  1  6
 17 29  1  0
 18 32  1  0
M  CHG  5  19   1  20   1  21   1  22   1  33   1
M  END
$$$$
6np5_ligand
     RDKit          3D

 33 35  0  0  0  0  0  0  0  0999 V2000
    1.2180   -9.1019    0.0930 C   0  0  2  0  0  0  0  0  0  0  0  0
    0.2319   -9.5867    1.0484 C   0  0  1  0  0  0  0  0  0  0  0  0
    0.9199  -10.1461    2.3312 C   0  0  2  0  0  0  0  0  0  0  0  0
    1.9865  -11.2359    1.9834 C   0  0  1  0  0  0  0  0  0  0  0  0
    2.9363  -10.3484    1.2241 C   0  0  1  0  0  0  0  0  0  0  0  0
    4.1681  -11.3487    0.9742 C   0  0  0  0  0  0  0  0  0  0  0  0
    3.1835   -5.1699   -2.5379 C   0  0  1  0  0  0  0  0  0  0  0  0
    3.7324   -5.8787   -1.3063 C   0  0  1  0  0  0  0  0  0  0  0  0
    2.9631   -7.1946   -1.3294 C   0  0  2  0  0  0  0  0  0  0  0  0
    1.6698   -6.9254   -0.9063 C   0  0  1  0  0  0  0  0  0  0  0  0
    0.9507   -6.2391   -1.8884 C   0  0  2  0  0  0  0  0  0  0  0  0
    1.7656   -4.9290   -2.0850 C   0  0  0  0  0  0  0  0  0  0  0  0
    6.0883   -6.4633   -1.1583 C   0  0  1  0  0  0  0  0  0  0  0  0
    6.5131   -7.4706   -0.1453 C   0  0  1  0  0  0  0  0  0  0  0  0
    7.5768   -7.1560    0.6916 C   0  0  2  0  0  0  0  0  0  0  0  0
    8.5849   -6.1980    0.3588 C   0  0  1  0  0  0  0  0  0  0  0  0
    7.8225   -5.1534   -0.2557 C   0  0  1  0  0  0  0  0  0  0  0  0
    8.9840   -4.0701   -0.6811 C   0  0  0  0  0  0  0  0  0  0  0  0
    5.2973  -10.6794    0.1793 N   0  0  0  0  0  0  0  0  0  0  0  0
   -0.3161   -5.7716   -1.2471 N   0  0  0  0  0  0  0  0  0  0  0  0
    4.1727   -3.9681   -2.6977 N   0  0  0  0  0  0  0  0  0  0  0  0
    8.0580   -8.3914    1.6265 N   0  0  0  0  0  0  0  0  0  0  0  0
    2.3916   -9.9674    0.0794 O   0  0  0  0  0  0  0  0  0  0  0  0
   -0.2246  -10.8624    3.0792 O   0  0  0  0  0  0  0  0  0  0  0  0
    2.5595  -11.7860    3.0975 O   0  0  0  0  0  0  0  0  0  0  0  0
    1.3380   -7.7887   -0.0029 O   0  0  0  0  0  0  0  0  0  0  0  0
    3.5698   -7.9357   -0.0504 O   0  0  0  0  0  0  0  0  0  0  0  0
    5.0074   -6.3499   -1.4136 O   0  0  0  0  0  0  0  0  0  0  0  0
    6.9074   -5.3940   -1.1343 O   0  0  0  0  0  0  0  0  0  0  0  0
    5.4731   -8.4445   -0.0008 O   0  0  0  0  0  0  0  0  0  0  0  0
    9.1554   -5.8496    1.6600 O   0  0  0  0  0  0  0  0  0  0  0  0
    9.1960   -4.1818   -1.7749 O   0  0  0  0  0  0  0  0  0  0  0  0
   -0.8137   -8.5088    1.4126 N   0  0  0  0  0  0  0  0  0  0  0  0
  1  2  1  0
  1 23  1  0
  1 26  1  1
  2  3  1  0
  2 33  1  1
  3  4  1  0
  3 24  1  1
  5  4  1  0
  4 25  1  1
  5  6  1  6
 23  5  1  0
  6 19  1  0
  8  7  1  0
  7 12  1  0
  7 21  1  1
  8  9  1  0
  8 28  1  6
  9 10  1  0
  9 27  1  1
 10 11  1  0
 10 26  1  6
 12 11  1  0
 11 20  1  1
 13 14  1  0
 13 28  1  1
 13 29  1  0
 14 15  1  0
 14 30  1  1
 15 16  1  0
 15 22  1  6
 16 17  1  0
 16 31  1  1
 17 18  1  6
 17 29  1  0
 18 32  1  0
M  CHG  5  19   1  20   1  21   1  22   1  33   1
M  END
$$$$
6np5_ligand
     RDKit          3D

 33 35  0  0  0  0  0  0  0  0999 V2000
    1.0185   -9.1392   -0.2499 C   0  0  2  0  0  0  0  0  0  0  0  0
    0.0144   -9.6671    0.6909 C   0  0  1  0  0  0  0  0  0  0  0  0
    0.6871  -10.1491    2.0011 C   0  0  2  0  0  0  0  0  0  0  0  0
    1.7551  -11.2282    1.7004 C   0  0  1  0  0  0  0  0  0  0  0  0
    2.6995  -10.3641    0.9262 C   0  0  1  0  0  0  0  0  0  0  0  0
    3.9298  -11.3553    0.6950 C   0  0  0  0  0  0  0  0  0  0  0  0
    3.2435   -5.2255   -2.6340 C   0  0  1  0  0  0  0  0  0  0  0  0
    3.7476   -6.0072   -1.4538 C   0  0  1  0  0  0  0  0  0  0  0  0
    2.9149   -7.3098   -1.5404 C   0  0  2  0  0  0  0  0  0  0  0  0
    1.6085   -6.9936   -1.1195 C   0  0  1  0  0  0  0  0  0  0  0  0
    0.9288   -6.2312   -2.0917 C   0  0  2  0  0  0  0  0  0  0  0  0
    1.7931   -4.9544   -2.1740 C   0  0  0  0  0  0  0  0  0  0  0  0
    6.1278   -6.6440   -1.2526 C   0  0  1  0  0  0  0  0  0  0  0  0
    6.4925   -7.4760   -0.0869 C   0  0  1  0  0  0  0  0  0  0  0  0
    7.5668   -7.1245    0.7010 C   0  0  2  0  0  0  0  0  0  0  0  0
    8.6412   -6.1716    0.2317 C   0  0  1  0  0  0  0  0  0  0  0  0
    7.9046   -5.2270   -0.5273 C   0  0  1  0  0  0  0  0  0  0  0  0
    9.0590   -4.2587   -1.1165 C   0  0  0  0  0  0  0  0  0  0  0  0
    5.0174  -10.7558   -0.1453 N   0  0  0  0  0  0  0  0  0  0  0  0
   -0.3424   -5.7135   -1.6121 N   0  0  0  0  0  0  0  0  0  0  0  0
    4.2370   -4.0752   -2.8114 N   0  0  0  0  0  0  0  0  0  0  0  0
    7.9807   -8.1374    1.8357 N   0  0  0  0  0  0  0  0  0  0  0  0
    2.1810  -10.0141   -0.2491 O   0  0  0  0  0  0  0  0  0  0  0  0
   -0.4661  -10.8498    2.7538 O   0  0  0  0  0  0  0  0  0  0  0  0
    2.3084  -11.7331    2.8700 O   0  0  0  0  0  0  0  0  0  0  0  0
    1.2059   -7.8420   -0.2895 O   0  0  0  0  0  0  0  0  0  0  0  0
    3.4490   -8.1516   -0.3359 O   0  0  0  0  0  0  0  0  0  0  0  0
    5.0670   -6.4033   -1.5247 O   0  0  0  0  0  0  0  0  0  0  0  0
    7.0316   -5.5848   -1.3885 O   0  0  0  0  0  0  0  0  0  0  0  0
    5.4563   -8.3401    0.2105 O   0  0  0  0  0  0  0  0  0  0  0  0
    9.1912   -5.6449    1.4454 O   0  0  0  0  0  0  0  0  0  0  0  0
    9.1910   -4.4436   -2.2369 O   0  0  0  0  0  0  0  0  0  0  0  0
   -1.0908   -8.6016    0.9581 N   0  0  0  0  0  0  0  0  0  0  0  0
  1  2  1  0
  1 23  1  0
  1 26  1  1
  2  3  1  0
  2 33  1  1
  3  4  1  0
  3 24  1  1
  5  4  1  0
  4 25  1  1
  5  6  1  6
 23  5  1  0
  6 19  1  0
  8  7  1  0
  7 12  1  0
  7 21  1  1
  8  9  1  0
  8 28  1  6
  9 10  1  0
  9 27  1  1
 10 11  1  0
 10 26  1  6
 12 11  1  0
 11 20  1  1
 13 14  1  0
 13 28  1  1
 13 29  1  0
 14 15  1  0
 14 30  1  1
 15 16  1  0
 15 22  1  6
 16 17  1  0
 16 31  1  1
 17 18  1  6
 17 29  1  0
 18 32  1  0
M  CHG  5  19   1  20   1  21   1  22   1  33   1
M  END
$$$$
6np5_ligand
     RDKit          3D

 33 35  0  0  0  0  0  0  0  0999 V2000
    0.8811   -9.0671    0.0029 C   0  0  2  0  0  0  0  0  0  0  0  0
   -0.1123   -9.6517    0.9184 C   0  0  1  0  0  0  0  0  0  0  0  0
    0.5731  -10.1208    2.2088 C   0  0  2  0  0  0  0  0  0  0  0  0
    1.7244  -11.1231    1.9289 C   0  0  1  0  0  0  0  0  0  0  0  0
    2.6349  -10.2074    1.1683 C   0  0  1  0  0  0  0  0  0  0  0  0
    3.9356  -11.1382    0.8862 C   0  0  0  0  0  0  0  0  0  0  0  0
    3.0408   -5.1862   -2.4611 C   0  0  1  0  0  0  0  0  0  0  0  0
    3.5710   -5.9933   -1.3025 C   0  0  1  0  0  0  0  0  0  0  0  0
    2.7120   -7.2636   -1.3900 C   0  0  2  0  0  0  0  0  0  0  0  0
    1.4201   -6.9472   -0.8738 C   0  0  1  0  0  0  0  0  0  0  0  0
    0.7073   -6.1598   -1.8358 C   0  0  2  0  0  0  0  0  0  0  0  0
    1.5920   -4.9128   -1.9475 C   0  0  0  0  0  0  0  0  0  0  0  0
    6.0146   -6.6039   -1.1489 C   0  0  1  0  0  0  0  0  0  0  0  0
    6.4927   -7.4811   -0.0423 C   0  0  1  0  0  0  0  0  0  0  0  0
    7.5260   -7.1120    0.7993 C   0  0  2  0  0  0  0  0  0  0  0  0
    8.5480   -6.0639    0.3966 C   0  0  1  0  0  0  0  0  0  0  0  0
    7.7317   -5.1102   -0.3075 C   0  0  1  0  0  0  0  0  0  0  0  0
    8.7826   -4.0161   -0.8263 C   0  0  0  0  0  0  0  0  0  0  0  0
    5.0555  -10.4989    0.2435 N   0  0  0  0  0  0  0  0  0  0  0  0
   -0.5467   -5.6634   -1.3006 N   0  0  0  0  0  0  0  0  0  0  0  0
    4.0021   -4.0506   -2.6661 N   0  0  0  0  0  0  0  0  0  0  0  0
    7.9848   -8.1011    1.8721 N   0  0  0  0  0  0  0  0  0  0  0  0
    2.1198   -9.8797   -0.0105 O   0  0  0  0  0  0  0  0  0  0  0  0
   -0.5380  -10.8969    2.9302 O   0  0  0  0  0  0  0  0  0  0  0  0
    2.2891  -11.5300    3.1692 O   0  0  0  0  0  0  0  0  0  0  0  0
    1.0681   -7.7562    0.0051 O   0  0  0  0  0  0  0  0  0  0  0  0
    3.2791   -8.1818   -0.3004 O   0  0  0  0  0  0  0  0  0  0  0  0
    4.9002   -6.4554   -1.4014 O   0  0  0  0  0  0  0  0  0  0  0  0
    6.8652   -5.4739   -1.2237 O   0  0  0  0  0  0  0  0  0  0  0  0
    5.5418   -8.4295    0.1977 O   0  0  0  0  0  0  0  0  0  0  0  0
    9.1258   -5.5418    1.6103 O   0  0  0  0  0  0  0  0  0  0  0  0
    8.9362   -4.2125   -2.0092 O   0  0  0  0  0  0  0  0  0  0  0  0
   -1.2760   -8.6303    1.1781 N   0  0  0  0  0  0  0  0  0  0  0  0
  1  2  1  0
  1 23  1  0
  1 26  1  1
  2  3  1  0
  2 33  1  1
  3  4  1  0
  3 24  1  1
  5  4  1  0
  4 25  1  1
  5  6  1  6
 23  5  1  0
  6 19  1  0
  8  7  1  0
  7 12  1  0
  7 21  1  1
  8  9  1  0
  8 28  1  6
  9 10  1  0
  9 27  1  1
 10 11  1  0
 10 26  1  6
 12 11  1  0
 11 20  1  1
 13 14  1  0
 13 28  1  1
 13 29  1  0
 14 15  1  0
 14 30  1  1
 15 16  1  0
 15 22  1  6
 16 17  1  0
 16 31  1  1
 17 18  1  6
 17 29  1  0
 18 32  1  0
M  CHG  5  19   1  20   1  21   1  22   1  33   1
M  END
$$$$
6np5_ligand
     RDKit          3D

 33 35  0  0  0  0  0  0  0  0999 V2000
    1.0695   -9.0667   -0.1068 C   0  0  2  0  0  0  0  0  0  0  0  0
    0.0476   -9.6291    0.8172 C   0  0  1  0  0  0  0  0  0  0  0  0
    0.6851  -10.0757    2.1300 C   0  0  2  0  0  0  0  0  0  0  0  0
    1.8585  -11.0875    1.9003 C   0  0  1  0  0  0  0  0  0  0  0  0
    2.7813  -10.2040    1.1409 C   0  0  1  0  0  0  0  0  0  0  0  0
    4.0699  -11.1408    0.9005 C   0  0  0  0  0  0  0  0  0  0  0  0
    3.2935   -5.2428   -2.6652 C   0  0  1  0  0  0  0  0  0  0  0  0
    3.7857   -6.0503   -1.4836 C   0  0  1  0  0  0  0  0  0  0  0  0
    2.9323   -7.3232   -1.5359 C   0  0  2  0  0  0  0  0  0  0  0  0
    1.6154   -7.0023   -1.0680 C   0  0  1  0  0  0  0  0  0  0  0  0
    0.9330   -6.2401   -2.1024 C   0  0  2  0  0  0  0  0  0  0  0  0
    1.8160   -4.9802   -2.1967 C   0  0  0  0  0  0  0  0  0  0  0  0
    6.2087   -6.6927   -1.3368 C   0  0  1  0  0  0  0  0  0  0  0  0
    6.6651   -7.6385   -0.2933 C   0  0  1  0  0  0  0  0  0  0  0  0
    7.6603   -7.3177    0.5952 C   0  0  2  0  0  0  0  0  0  0  0  0
    8.6943   -6.2165    0.2836 C   0  0  1  0  0  0  0  0  0  0  0  0
    7.9292   -5.2431   -0.4200 C   0  0  1  0  0  0  0  0  0  0  0  0
    9.0264   -4.1677   -0.9026 C   0  0  0  0  0  0  0  0  0  0  0  0
    5.1126  -10.5654    0.2013 N   0  0  0  0  0  0  0  0  0  0  0  0
   -0.3663   -5.7838   -1.6879 N   0  0  0  0  0  0  0  0  0  0  0  0
    4.2454   -4.1056   -2.8399 N   0  0  0  0  0  0  0  0  0  0  0  0
    8.0875   -8.3633    1.6121 N   0  0  0  0  0  0  0  0  0  0  0  0
    2.3136   -9.8324   -0.0548 O   0  0  0  0  0  0  0  0  0  0  0  0
   -0.4209  -10.8115    2.8571 O   0  0  0  0  0  0  0  0  0  0  0  0
    2.4113  -11.5012    3.1659 O   0  0  0  0  0  0  0  0  0  0  0  0
    1.2168   -7.7771   -0.1893 O   0  0  0  0  0  0  0  0  0  0  0  0
    3.4778   -8.2007   -0.4570 O   0  0  0  0  0  0  0  0  0  0  0  0
    5.1174   -6.5161   -1.5762 O   0  0  0  0  0  0  0  0  0  0  0  0
    7.0919   -5.5764   -1.3579 O   0  0  0  0  0  0  0  0  0  0  0  0
    5.6640   -8.5673   -0.1090 O   0  0  0  0  0  0  0  0  0  0  0  0
    9.1457   -5.7782    1.5734 O   0  0  0  0  0  0  0  0  0  0  0  0
    9.1162   -4.2065   -2.0867 O   0  0  0  0  0  0  0  0  0  0  0  0
   -1.1207   -8.5959    1.0597 N   0  0  0  0  0  0  0  0  0  0  0  0
  1  2  1  0
  1 23  1  0
  1 26  1  1
  2  3  1  0
  2 33  1  1
  3  4  1  0
  3 24  1  1
  5  4  1  0
  4 25  1  1
  5  6  1  6
 23  5  1  0
  6 19  1  0
  8  7  1  0
  7 12  1  0
  7 21  1  1
  8  9  1  0
  8 28  1  6
  9 10  1  0
  9 27  1  1
 10 11  1  0
 10 26  1  6
 12 11  1  0
 11 20  1  1
 13 14  1  0
 13 28  1  1
 13 29  1  0
 14 15  1  0
 14 30  1  1
 15 16  1  0
 15 22  1  6
 16 17  1  0
 16 31  1  1
 17 18  1  6
 17 29  1  0
 18 32  1  0
M  CHG  5  19   1  20   1  21   1  22   1  33   1
M  END
$$$$
6np5_ligand
     RDKit          3D

 33 35  0  0  0  0  0  0  0  0999 V2000
    0.9411   -9.1192   -0.1539 C   0  0  2  0  0  0  0  0  0  0  0  0
   -0.0698   -9.5918    0.8649 C   0  0  1  0  0  0  0  0  0  0  0  0
    0.6409   -9.9964    2.1702 C   0  0  2  0  0  0  0  0  0  0  0  0
    1.7657  -11.0589    1.9725 C   0  0  1  0  0  0  0  0  0  0  0  0
    2.6852  -10.2495    1.0649 C   0  0  1  0  0  0  0  0  0  0  0  0
    3.9140  -11.2575    0.8222 C   0  0  0  0  0  0  0  0  0  0  0  0
    3.2774   -5.1677   -2.5723 C   0  0  1  0  0  0  0  0  0  0  0  0
    3.7282   -6.0562   -1.4341 C   0  0  1  0  0  0  0  0  0  0  0  0
    2.8718   -7.3375   -1.5342 C   0  0  2  0  0  0  0  0  0  0  0  0
    1.5401   -7.0164   -1.1139 C   0  0  1  0  0  0  0  0  0  0  0  0
    0.9145   -6.2270   -2.1575 C   0  0  2  0  0  0  0  0  0  0  0  0
    1.7858   -4.9309   -2.1159 C   0  0  0  0  0  0  0  0  0  0  0  0
    6.1633   -6.7276   -1.3149 C   0  0  1  0  0  0  0  0  0  0  0  0
    6.6533   -7.6772   -0.2851 C   0  0  1  0  0  0  0  0  0  0  0  0
    7.6437   -7.3159    0.6242 C   0  0  2  0  0  0  0  0  0  0  0  0
    8.6361   -6.1522    0.3227 C   0  0  1  0  0  0  0  0  0  0  0  0
    7.8193   -5.1696   -0.3690 C   0  0  1  0  0  0  0  0  0  0  0  0
    8.8218   -4.0270   -0.8359 C   0  0  0  0  0  0  0  0  0  0  0  0
    4.8789  -10.8045   -0.0326 N   0  0  0  0  0  0  0  0  0  0  0  0
   -0.4092   -5.8471   -1.8915 N   0  0  0  0  0  0  0  0  0  0  0  0
    4.2251   -4.0302   -2.6568 N   0  0  0  0  0  0  0  0  0  0  0  0
    8.0885   -8.2853    1.6789 N   0  0  0  0  0  0  0  0  0  0  0  0
    2.0983   -9.9732   -0.1549 O   0  0  0  0  0  0  0  0  0  0  0  0
   -0.4212  -10.6337    3.0195 O   0  0  0  0  0  0  0  0  0  0  0  0
    2.3980  -11.4116    3.2124 O   0  0  0  0  0  0  0  0  0  0  0  0
    1.1002   -7.8488   -0.2468 O   0  0  0  0  0  0  0  0  0  0  0  0
    3.3786   -8.2240   -0.4701 O   0  0  0  0  0  0  0  0  0  0  0  0
    5.0578   -6.5539   -1.5121 O   0  0  0  0  0  0  0  0  0  0  0  0
    7.0285   -5.5629   -1.3234 O   0  0  0  0  0  0  0  0  0  0  0  0
    5.7313   -8.5936   -0.0593 O   0  0  0  0  0  0  0  0  0  0  0  0
    9.1103   -5.6638    1.5811 O   0  0  0  0  0  0  0  0  0  0  0  0
    9.0542   -4.2433   -2.0739 O   0  0  0  0  0  0  0  0  0  0  0  0
   -1.1453   -8.5137    1.1698 N   0  0  0  0  0  0  0  0  0  0  0  0
  1  2  1  0
  1 23  1  0
  1 26  1  1
  2  3  1  0
  2 33  1  1
  3  4  1  0
  3 24  1  1
  5  4  1  0
  4 25  1  1
  5  6  1  6
 23  5  1  0
  6 19  1  0
  8  7  1  0
  7 12  1  0
  7 21  1  1
  8  9  1  0
  8 28  1  6
  9 10  1  0
  9 27  1  1
 10 11  1  0
 10 26  1  6
 12 11  1  0
 11 20  1  1
 13 14  1  0
 13 28  1  1
 13 29  1  0
 14 15  1  0
 14 30  1  1
 15 16  1  0
 15 22  1  6
 16 17  1  0
 16 31  1  1
 17 18  1  6
 17 29  1  0
 18 32  1  0
M  CHG  5  19   1  20   1  21   1  22   1  33   1
M  END
$$$$
6np5_ligand
     RDKit          3D

 33 35  0  0  0  0  0  0  0  0999 V2000
    0.9578   -9.0701   -0.1537 C   0  0  2  0  0  0  0  0  0  0  0  0
   -0.0251   -9.4398    0.9264 C   0  0  1  0  0  0  0  0  0  0  0  0
    0.7562   -9.7517    2.2194 C   0  0  2  0  0  0  0  0  0  0  0  0
    1.8288  -10.8785    2.0566 C   0  0  1  0  0  0  0  0  0  0  0  0
    2.7332  -10.2141    1.0191 C   0  0  1  0  0  0  0  0  0  0  0  0
    3.9125  -11.3031    0.7760 C   0  0  0  0  0  0  0  0  0  0  0  0
    3.3282   -5.1106   -2.5743 C   0  0  1  0  0  0  0  0  0  0  0  0
    3.7855   -5.9947   -1.4279 C   0  0  1  0  0  0  0  0  0  0  0  0
    2.9527   -7.2864   -1.5196 C   0  0  2  0  0  0  0  0  0  0  0  0
    1.5975   -6.9932   -1.1442 C   0  0  1  0  0  0  0  0  0  0  0  0
    0.9921   -6.2257   -2.1961 C   0  0  2  0  0  0  0  0  0  0  0  0
    1.8319   -4.9034   -2.1437 C   0  0  0  0  0  0  0  0  0  0  0  0
    6.2052   -6.6971   -1.3338 C   0  0  1  0  0  0  0  0  0  0  0  0
    6.6748   -7.6593   -0.3258 C   0  0  1  0  0  0  0  0  0  0  0  0
    7.6896   -7.2918    0.5791 C   0  0  2  0  0  0  0  0  0  0  0  0
    8.6808   -6.1620    0.2541 C   0  0  1  0  0  0  0  0  0  0  0  0
    7.8628   -5.1325   -0.4420 C   0  0  1  0  0  0  0  0  0  0  0  0
    8.8660   -4.0155   -0.9702 C   0  0  0  0  0  0  0  0  0  0  0  0
    4.8482  -11.0034   -0.1433 N   0  0  0  0  0  0  0  0  0  0  0  0
   -0.3516   -5.9174   -2.0063 N   0  0  0  0  0  0  0  0  0  0  0  0
    4.2554   -3.9349   -2.6197 N   0  0  0  0  0  0  0  0  0  0  0  0
    8.1511   -8.2913    1.5946 N   0  0  0  0  0  0  0  0  0  0  0  0
    2.0629  -10.0011   -0.1695 O   0  0  0  0  0  0  0  0  0  0  0  0
   -0.2936  -10.2554    3.1754 O   0  0  0  0  0  0  0  0  0  0  0  0
    2.5013  -11.1353    3.2868 O   0  0  0  0  0  0  0  0  0  0  0  0
    1.1948   -7.7720   -0.2160 O   0  0  0  0  0  0  0  0  0  0  0  0
    3.4589   -8.1461   -0.4502 O   0  0  0  0  0  0  0  0  0  0  0  0
    5.1091   -6.4779   -1.5078 O   0  0  0  0  0  0  0  0  0  0  0  0
    7.0595   -5.5449   -1.3917 O   0  0  0  0  0  0  0  0  0  0  0  0
    5.7672   -8.5273   -0.0516 O   0  0  0  0  0  0  0  0  0  0  0  0
    9.1873   -5.5961    1.4715 O   0  0  0  0  0  0  0  0  0  0  0  0
    8.9974   -4.2448   -2.2371 O   0  0  0  0  0  0  0  0  0  0  0  0
   -1.0691   -8.3376    1.1545 N   0  0  0  0  0  0  0  0  0  0  0  0
  1  2  1  0
  1 23  1  0
  1 26  1  1
  2  3  1  0
  2 33  1  1
  3  4  1  0
  3 24  1  1
  5  4  1  0
  4 25  1  1
  5  6  1  6
 23  5  1  0
  6 19  1  0
  8  7  1  0
  7 12  1  0
  7 21  1  1
  8  9  1  0
  8 28  1  6
  9 10  1  0
  9 27  1  1
 10 11  1  0
 10 26  1  6
 12 11  1  0
 11 20  1  1
 13 14  1  0
 13 28  1  1
 13 29  1  0
 14 15  1  0
 14 30  1  1
 15 16  1  0
 15 22  1  6
 16 17  1  0
 16 31  1  1
 17 18  1  6
 17 29  1  0
 18 32  1  0
M  CHG  5  19   1  20   1  21   1  22   1  33   1
M  END
$$$$
6np5_ligand
     RDKit          3D

 33 35  0  0  0  0  0  0  0  0999 V2000
    0.9195   -9.1106   -0.2869 C   0  0  2  0  0  0  0  0  0  0  0  0
   -0.0787   -9.4796    0.7763 C   0  0  1  0  0  0  0  0  0  0  0  0
    0.6869   -9.8225    2.0665 C   0  0  2  0  0  0  0  0  0  0  0  0
    1.7642  -10.9441    1.8873 C   0  0  1  0  0  0  0  0  0  0  0  0
    2.7000  -10.2940    0.8657 C   0  0  1  0  0  0  0  0  0  0  0  0
    3.8632  -11.3865    0.5771 C   0  0  0  0  0  0  0  0  0  0  0  0
    3.2857   -5.2006   -2.5961 C   0  0  1  0  0  0  0  0  0  0  0  0
    3.7200   -6.0861   -1.4430 C   0  0  1  0  0  0  0  0  0  0  0  0
    2.8789   -7.3624   -1.5482 C   0  0  2  0  0  0  0  0  0  0  0  0
    1.5315   -7.0371   -1.2107 C   0  0  1  0  0  0  0  0  0  0  0  0
    0.9455   -6.2486   -2.2486 C   0  0  2  0  0  0  0  0  0  0  0  0
    1.7924   -4.9370   -2.1910 C   0  0  0  0  0  0  0  0  0  0  0  0
    6.1091   -6.7571   -1.3666 C   0  0  1  0  0  0  0  0  0  0  0  0
    6.6257   -7.7328   -0.3847 C   0  0  1  0  0  0  0  0  0  0  0  0
    7.6710   -7.3553    0.5210 C   0  0  2  0  0  0  0  0  0  0  0  0
    8.6160   -6.2047    0.2048 C   0  0  1  0  0  0  0  0  0  0  0  0
    7.7932   -5.1745   -0.4907 C   0  0  1  0  0  0  0  0  0  0  0  0
    8.8036   -4.0512   -1.0347 C   0  0  0  0  0  0  0  0  0  0  0  0
    4.7898  -10.9931   -0.3660 N   0  0  0  0  0  0  0  0  0  0  0  0
   -0.4052   -5.9243   -2.0519 N   0  0  0  0  0  0  0  0  0  0  0  0
    4.2325   -4.0448   -2.6969 N   0  0  0  0  0  0  0  0  0  0  0  0
    8.1646   -8.3895    1.5029 N   0  0  0  0  0  0  0  0  0  0  0  0
    2.0447  -10.0134   -0.3241 O   0  0  0  0  0  0  0  0  0  0  0  0
   -0.3743  -10.3393    2.9981 O   0  0  0  0  0  0  0  0  0  0  0  0
    2.4450  -11.2395    3.1073 O   0  0  0  0  0  0  0  0  0  0  0  0
    1.1224   -7.8087   -0.3102 O   0  0  0  0  0  0  0  0  0  0  0  0
    3.3628   -8.2357   -0.4964 O   0  0  0  0  0  0  0  0  0  0  0  0
    5.0241   -6.5193   -1.4805 O   0  0  0  0  0  0  0  0  0  0  0  0
    6.9637   -5.5969   -1.4224 O   0  0  0  0  0  0  0  0  0  0  0  0
    5.7761   -8.6553   -0.1158 O   0  0  0  0  0  0  0  0  0  0  0  0
    9.1195   -5.6300    1.4303 O   0  0  0  0  0  0  0  0  0  0  0  0
    8.7810   -4.1695   -2.3544 O   0  0  0  0  0  0  0  0  0  0  0  0
   -1.1376   -8.3569    1.0212 N   0  0  0  0  0  0  0  0  0  0  0  0
  1  2  1  0
  1 23  1  0
  1 26  1  1
  2  3  1  0
  2 33  1  1
  3  4  1  0
  3 24  1  1
  5  4  1  0
  4 25  1  1
  5  6  1  6
 23  5  1  0
  6 19  1  0
  8  7  1  0
  7 12  1  0
  7 21  1  1
  8  9  1  0
  8 28  1  6
  9 10  1  0
  9 27  1  1
 10 11  1  0
 10 26  1  6
 12 11  1  0
 11 20  1  1
 13 14  1  0
 13 28  1  1
 13 29  1  0
 14 15  1  0
 14 30  1  1
 15 16  1  0
 15 22  1  6
 16 17  1  0
 16 31  1  1
 17 18  1  6
 17 29  1  0
 18 32  1  0
M  CHG  5  19   1  20   1  21   1  22   1  33   1
M  END
$$$$
6np5_ligand
     RDKit          3D

 33 35  0  0  0  0  0  0  0  0999 V2000
    0.9178   -9.0929   -0.3884 C   0  0  2  0  0  0  0  0  0  0  0  0
   -0.1093   -9.4936    0.6604 C   0  0  1  0  0  0  0  0  0  0  0  0
    0.6298   -9.7691    1.9898 C   0  0  2  0  0  0  0  0  0  0  0  0
    1.7413  -10.8571    1.8631 C   0  0  1  0  0  0  0  0  0  0  0  0
    2.6724  -10.2527    0.8128 C   0  0  1  0  0  0  0  0  0  0  0  0
    3.8235  -11.3552    0.5437 C   0  0  0  0  0  0  0  0  0  0  0  0
    3.3105   -5.1562   -2.5435 C   0  0  1  0  0  0  0  0  0  0  0  0
    3.7466   -6.1055   -1.4357 C   0  0  1  0  0  0  0  0  0  0  0  0
    2.8948   -7.3571   -1.5912 C   0  0  2  0  0  0  0  0  0  0  0  0
    1.5298   -7.0107   -1.2396 C   0  0  1  0  0  0  0  0  0  0  0  0
    0.9519   -6.1649   -2.2403 C   0  0  2  0  0  0  0  0  0  0  0  0
    1.8096   -4.8797   -2.1530 C   0  0  0  0  0  0  0  0  0  0  0  0
    6.0955   -6.8214   -1.3832 C   0  0  1  0  0  0  0  0  0  0  0  0
    6.5738   -7.8195   -0.4171 C   0  0  1  0  0  0  0  0  0  0  0  0
    7.6021   -7.4150    0.5427 C   0  0  2  0  0  0  0  0  0  0  0  0
    8.5256   -6.2368    0.2505 C   0  0  1  0  0  0  0  0  0  0  0  0
    7.6990   -5.1950   -0.4624 C   0  0  1  0  0  0  0  0  0  0  0  0
    8.6903   -4.0446   -0.9918 C   0  0  0  0  0  0  0  0  0  0  0  0
    4.6934  -10.9434   -0.5045 N   0  0  0  0  0  0  0  0  0  0  0  0
   -0.4048   -5.8310   -1.9840 N   0  0  0  0  0  0  0  0  0  0  0  0
    4.2692   -4.0098   -2.5838 N   0  0  0  0  0  0  0  0  0  0  0  0
    8.0563   -8.4242    1.5507 N   0  0  0  0  0  0  0  0  0  0  0  0
    2.0357   -9.9849   -0.4067 O   0  0  0  0  0  0  0  0  0  0  0  0
   -0.4400  -10.2981    2.9067 O   0  0  0  0  0  0  0  0  0  0  0  0
    2.4187  -11.0491    3.1202 O   0  0  0  0  0  0  0  0  0  0  0  0
    1.1341   -7.7829   -0.3557 O   0  0  0  0  0  0  0  0  0  0  0  0
    3.3609   -8.2844   -0.6011 O   0  0  0  0  0  0  0  0  0  0  0  0
    5.0433   -6.5398   -1.5079 O   0  0  0  0  0  0  0  0  0  0  0  0
    6.9175   -5.6386   -1.4477 O   0  0  0  0  0  0  0  0  0  0  0  0
    5.7084   -8.7157   -0.1430 O   0  0  0  0  0  0  0  0  0  0  0  0
    9.0111   -5.6668    1.4697 O   0  0  0  0  0  0  0  0  0  0  0  0
    8.7242   -4.1490   -2.3272 O   0  0  0  0  0  0  0  0  0  0  0  0
   -1.2261   -8.4208    0.8413 N   0  0  0  0  0  0  0  0  0  0  0  0
  1  2  1  0
  1 23  1  0
  1 26  1  1
  2  3  1  0
  2 33  1  1
  3  4  1  0
  3 24  1  1
  5  4  1  0
  4 25  1  1
  5  6  1  6
 23  5  1  0
  6 19  1  0
  8  7  1  0
  7 12  1  0
  7 21  1  1
  8  9  1  0
  8 28  1  6
  9 10  1  0
  9 27  1  1
 10 11  1  0
 10 26  1  6
 12 11  1  0
 11 20  1  1
 13 14  1  0
 13 28  1  1
 13 29  1  0
 14 15  1  0
 14 30  1  1
 15 16  1  0
 15 22  1  6
 16 17  1  0
 16 31  1  1
 17 18  1  6
 17 29  1  0
 18 32  1  0
M  CHG  5  19   1  20   1  21   1  22   1  33   1
M  END
$$$$
6np5_ligand
     RDKit          3D

 33 35  0  0  0  0  0  0  0  0999 V2000
    0.9088   -9.0082   -0.4564 C   0  0  2  0  0  0  0  0  0  0  0  0
   -0.1357   -9.3770    0.5826 C   0  0  1  0  0  0  0  0  0  0  0  0
    0.6054   -9.6323    1.9226 C   0  0  2  0  0  0  0  0  0  0  0  0
    1.7025  -10.7497    1.7993 C   0  0  1  0  0  0  0  0  0  0  0  0
    2.6540  -10.1653    0.7460 C   0  0  1  0  0  0  0  0  0  0  0  0
    3.8100  -11.2777    0.4874 C   0  0  0  0  0  0  0  0  0  0  0  0
    3.2086   -5.1324   -2.7047 C   0  0  1  0  0  0  0  0  0  0  0  0
    3.6412   -6.0767   -1.5926 C   0  0  1  0  0  0  0  0  0  0  0  0
    2.7842   -7.3199   -1.7587 C   0  0  2  0  0  0  0  0  0  0  0  0
    1.4803   -6.9430   -1.3446 C   0  0  1  0  0  0  0  0  0  0  0  0
    0.8750   -6.0587   -2.3036 C   0  0  2  0  0  0  0  0  0  0  0  0
    1.7586   -4.8136   -2.2731 C   0  0  0  0  0  0  0  0  0  0  0  0
    5.9822   -6.7508   -1.4970 C   0  0  1  0  0  0  0  0  0  0  0  0
    6.4898   -7.7064   -0.5051 C   0  0  1  0  0  0  0  0  0  0  0  0
    7.5548   -7.2944    0.4135 C   0  0  2  0  0  0  0  0  0  0  0  0
    8.4209   -6.0989    0.1417 C   0  0  1  0  0  0  0  0  0  0  0  0
    7.5842   -5.0693   -0.5965 C   0  0  1  0  0  0  0  0  0  0  0  0
    8.5748   -3.8985   -1.1405 C   0  0  0  0  0  0  0  0  0  0  0  0
    4.7287  -10.7813   -0.5072 N   0  0  0  0  0  0  0  0  0  0  0  0
   -0.4491   -5.6968   -1.9858 N   0  0  0  0  0  0  0  0  0  0  0  0
    4.1974   -4.0396   -2.8213 N   0  0  0  0  0  0  0  0  0  0  0  0
    8.0833   -8.3449    1.3727 N   0  0  0  0  0  0  0  0  0  0  0  0
    2.0142   -9.9130   -0.4672 O   0  0  0  0  0  0  0  0  0  0  0  0
   -0.4641  -10.1157    2.8477 O   0  0  0  0  0  0  0  0  0  0  0  0
    2.3493  -10.9585    3.0567 O   0  0  0  0  0  0  0  0  0  0  0  0
    1.1429   -7.6801   -0.4191 O   0  0  0  0  0  0  0  0  0  0  0  0
    3.2511   -8.3182   -0.8862 O   0  0  0  0  0  0  0  0  0  0  0  0
    4.9517   -6.4919   -1.6168 O   0  0  0  0  0  0  0  0  0  0  0  0
    6.7644   -5.5381   -1.5713 O   0  0  0  0  0  0  0  0  0  0  0  0
    5.6562   -8.6545   -0.2381 O   0  0  0  0  0  0  0  0  0  0  0  0
    8.8558   -5.4948    1.3831 O   0  0  0  0  0  0  0  0  0  0  0  0
    8.5724   -3.9763   -2.4679 O   0  0  0  0  0  0  0  0  0  0  0  0
   -1.2300   -8.2955    0.7494 N   0  0  0  0  0  0  0  0  0  0  0  0
  1  2  1  0
  1 23  1  0
  1 26  1  1
  2  3  1  0
  2 33  1  1
  3  4  1  0
  3 24  1  1
  5  4  1  0
  4 25  1  1
  5  6  1  6
 23  5  1  0
  6 19  1  0
  8  7  1  0
  7 12  1  0
  7 21  1  1
  8  9  1  0
  8 28  1  6
  9 10  1  0
  9 27  1  1
 10 11  1  0
 10 26  1  6
 12 11  1  0
 11 20  1  1
 13 14  1  0
 13 28  1  1
 13 29  1  0
 14 15  1  0
 14 30  1  1
 15 16  1  0
 15 22  1  6
 16 17  1  0
 16 31  1  1
 17 18  1  6
 17 29  1  0
 18 32  1  0
M  CHG  5  19   1  20   1  21   1  22   1  33   1
M  END
$$$$
6np5_ligand
     RDKit          3D

 33 35  0  0  0  0  0  0  0  0999 V2000
    0.7873   -9.1000   -0.5141 C   0  0  2  0  0  0  0  0  0  0  0  0
   -0.2379   -9.4749    0.5788 C   0  0  1  0  0  0  0  0  0  0  0  0
    0.5367   -9.6836    1.9130 C   0  0  2  0  0  0  0  0  0  0  0  0
    1.6593  -10.7579    1.7895 C   0  0  1  0  0  0  0  0  0  0  0  0
    2.5578  -10.1928    0.6675 C   0  0  1  0  0  0  0  0  0  0  0  0
    3.7323  -11.2947    0.3911 C   0  0  0  0  0  0  0  0  0  0  0  0
    3.1188   -5.1284   -2.6550 C   0  0  1  0  0  0  0  0  0  0  0  0
    3.5681   -6.0825   -1.5643 C   0  0  1  0  0  0  0  0  0  0  0  0
    2.7458   -7.3394   -1.7275 C   0  0  2  0  0  0  0  0  0  0  0  0
    1.4064   -7.0041   -1.3555 C   0  0  1  0  0  0  0  0  0  0  0  0
    0.8072   -6.1144   -2.3258 C   0  0  2  0  0  0  0  0  0  0  0  0
    1.6678   -4.8344   -2.2276 C   0  0  0  0  0  0  0  0  0  0  0  0
    5.9250   -6.7283   -1.4539 C   0  0  1  0  0  0  0  0  0  0  0  0
    6.3999   -7.6822   -0.4578 C   0  0  1  0  0  0  0  0  0  0  0  0
    7.5221   -7.3312    0.3955 C   0  0  2  0  0  0  0  0  0  0  0  0
    8.3657   -6.1086    0.1772 C   0  0  1  0  0  0  0  0  0  0  0  0
    7.5258   -5.0500   -0.5267 C   0  0  1  0  0  0  0  0  0  0  0  0
    8.5119   -3.8498   -1.0499 C   0  0  0  0  0  0  0  0  0  0  0  0
    4.5576  -10.6828   -0.7333 N   0  0  0  0  0  0  0  0  0  0  0  0
   -0.5388   -5.8110   -2.0995 N   0  0  0  0  0  0  0  0  0  0  0  0
    4.0581   -4.0114   -2.7824 N   0  0  0  0  0  0  0  0  0  0  0  0
    8.0309   -8.3604    1.3605 N   0  0  0  0  0  0  0  0  0  0  0  0
    1.8771  -10.0088   -0.5426 O   0  0  0  0  0  0  0  0  0  0  0  0
   -0.5135  -10.2008    2.8722 O   0  0  0  0  0  0  0  0  0  0  0  0
    2.3319  -10.9149    3.0223 O   0  0  0  0  0  0  0  0  0  0  0  0
    1.0437   -7.7661   -0.4568 O   0  0  0  0  0  0  0  0  0  0  0  0
    3.2147   -8.3135   -0.8484 O   0  0  0  0  0  0  0  0  0  0  0  0
    4.8900   -6.4822   -1.6218 O   0  0  0  0  0  0  0  0  0  0  0  0
    6.6871   -5.4923   -1.4946 O   0  0  0  0  0  0  0  0  0  0  0  0
    5.5021   -8.5660   -0.1291 O   0  0  0  0  0  0  0  0  0  0  0  0
    8.8032   -5.5623    1.4099 O   0  0  0  0  0  0  0  0  0  0  0  0
    8.4859   -3.9008   -2.4296 O   0  0  0  0  0  0  0  0  0  0  0  0
   -1.3503   -8.4066    0.7344 N   0  0  0  0  0  0  0  0  0  0  0  0
  1  2  1  0
  1 23  1  0
  1 26  1  1
  2  3  1  0
  2 33  1  1
  3  4  1  0
  3 24  1  1
  5  4  1  0
  4 25  1  1
  5  6  1  6
 23  5  1  0
  6 19  1  0
  8  7  1  0
  7 12  1  0
  7 21  1  1
  8  9  1  0
  8 28  1  6
  9 10  1  0
  9 27  1  1
 10 11  1  0
 10 26  1  6
 12 11  1  0
 11 20  1  1
 13 14  1  0
 13 28  1  1
 13 29  1  0
 14 15  1  0
 14 30  1  1
 15 16  1  0
 15 22  1  6
 16 17  1  0
 16 31  1  1
 17 18  1  6
 17 29  1  0
 18 32  1  0
M  CHG  5  19   1  20   1  21   1  22   1  33   1
M  END
$$$$
6np5_ligand
     RDKit          3D

 33 35  0  0  0  0  0  0  0  0999 V2000
    0.8262   -9.0419   -0.5474 C   0  0  2  0  0  0  0  0  0  0  0  0
   -0.1990   -9.4187    0.5928 C   0  0  1  0  0  0  0  0  0  0  0  0
    0.6059   -9.6065    1.8959 C   0  0  2  0  0  0  0  0  0  0  0  0
    1.7376  -10.6597    1.7605 C   0  0  1  0  0  0  0  0  0  0  0  0
    2.6182  -10.1285    0.6072 C   0  0  1  0  0  0  0  0  0  0  0  0
    3.7942  -11.2301    0.3142 C   0  0  0  0  0  0  0  0  0  0  0  0
    3.2047   -5.0899   -2.6867 C   0  0  1  0  0  0  0  0  0  0  0  0
    3.6682   -6.0288   -1.5853 C   0  0  1  0  0  0  0  0  0  0  0  0
    2.8346   -7.2741   -1.7256 C   0  0  2  0  0  0  0  0  0  0  0  0
    1.4867   -6.9466   -1.3688 C   0  0  1  0  0  0  0  0  0  0  0  0
    0.9029   -6.0389   -2.3264 C   0  0  2  0  0  0  0  0  0  0  0  0
    1.7662   -4.7682   -2.2510 C   0  0  0  0  0  0  0  0  0  0  0  0
    6.0249   -6.7125   -1.4656 C   0  0  1  0  0  0  0  0  0  0  0  0
    6.4948   -7.6667   -0.4524 C   0  0  1  0  0  0  0  0  0  0  0  0
    7.6180   -7.2954    0.4176 C   0  0  2  0  0  0  0  0  0  0  0  0
    8.4846   -6.0743    0.1585 C   0  0  1  0  0  0  0  0  0  0  0  0
    7.6462   -5.0202   -0.5728 C   0  0  1  0  0  0  0  0  0  0  0  0
    8.6256   -3.8145   -1.0978 C   0  0  0  0  0  0  0  0  0  0  0  0
    4.6129  -10.6125   -0.8343 N   0  0  0  0  0  0  0  0  0  0  0  0
   -0.4390   -5.7157   -2.0834 N   0  0  0  0  0  0  0  0  0  0  0  0
    4.1248   -3.9774   -2.8684 N   0  0  0  0  0  0  0  0  0  0  0  0
    8.1227   -8.2709    1.4227 N   0  0  0  0  0  0  0  0  0  0  0  0
    1.9039   -9.9590   -0.5882 O   0  0  0  0  0  0  0  0  0  0  0  0
   -0.4191  -10.1075    2.8882 O   0  0  0  0  0  0  0  0  0  0  0  0
    2.4482  -10.7678    2.9878 O   0  0  0  0  0  0  0  0  0  0  0  0
    1.0880   -7.7040   -0.4959 O   0  0  0  0  0  0  0  0  0  0  0  0
    3.2990   -8.2443   -0.8493 O   0  0  0  0  0  0  0  0  0  0  0  0
    4.9983   -6.4279   -1.6192 O   0  0  0  0  0  0  0  0  0  0  0  0
    6.8165   -5.4833   -1.5510 O   0  0  0  0  0  0  0  0  0  0  0  0
    5.6090   -8.5497   -0.1141 O   0  0  0  0  0  0  0  0  0  0  0  0
    8.9670   -5.4965    1.3574 O   0  0  0  0  0  0  0  0  0  0  0  0
    8.6598   -3.9638   -2.4870 O   0  0  0  0  0  0  0  0  0  0  0  0
   -1.3121   -8.3642    0.7778 N   0  0  0  0  0  0  0  0  0  0  0  0
  1  2  1  0
  1 23  1  0
  1 26  1  1
  2  3  1  0
  2 33  1  1
  3  4  1  0
  3 24  1  1
  5  4  1  0
  4 25  1  1
  5  6  1  6
 23  5  1  0
  6 19  1  0
  8  7  1  0
  7 12  1  0
  7 21  1  1
  8  9  1  0
  8 28  1  6
  9 10  1  0
  9 27  1  1
 10 11  1  0
 10 26  1  6
 12 11  1  0
 11 20  1  1
 13 14  1  0
 13 28  1  1
 13 29  1  0
 14 15  1  0
 14 30  1  1
 15 16  1  0
 15 22  1  6
 16 17  1  0
 16 31  1  1
 17 18  1  6
 17 29  1  0
 18 32  1  0
M  CHG  5  19   1  20   1  21   1  22   1  33   1
M  END
$$$$
6np5_ligand
     RDKit          3D

 33 35  0  0  0  0  0  0  0  0999 V2000
    0.8314   -9.0721   -0.5613 C   0  0  2  0  0  0  0  0  0  0  0  0
   -0.2173   -9.4695    0.5516 C   0  0  1  0  0  0  0  0  0  0  0  0
    0.5676   -9.6397    1.8749 C   0  0  2  0  0  0  0  0  0  0  0  0
    1.7024  -10.6734    1.7607 C   0  0  1  0  0  0  0  0  0  0  0  0
    2.6073  -10.1352    0.6126 C   0  0  1  0  0  0  0  0  0  0  0  0
    3.8109  -11.2030    0.3538 C   0  0  0  0  0  0  0  0  0  0  0  0
    3.2099   -5.1018   -2.6237 C   0  0  1  0  0  0  0  0  0  0  0  0
    3.6989   -6.0585   -1.5505 C   0  0  1  0  0  0  0  0  0  0  0  0
    2.8814   -7.2930   -1.6994 C   0  0  2  0  0  0  0  0  0  0  0  0
    1.5253   -6.9787   -1.3264 C   0  0  1  0  0  0  0  0  0  0  0  0
    0.9304   -6.0681   -2.2806 C   0  0  2  0  0  0  0  0  0  0  0  0
    1.7639   -4.7824   -2.1416 C   0  0  0  0  0  0  0  0  0  0  0  0
    6.0723   -6.7483   -1.4448 C   0  0  1  0  0  0  0  0  0  0  0  0
    6.5596   -7.6969   -0.4154 C   0  0  1  0  0  0  0  0  0  0  0  0
    7.6571   -7.2976    0.4656 C   0  0  2  0  0  0  0  0  0  0  0  0
    8.5178   -6.0863    0.1888 C   0  0  1  0  0  0  0  0  0  0  0  0
    7.6620   -5.0264   -0.5455 C   0  0  1  0  0  0  0  0  0  0  0  0
    8.6289   -3.7933   -1.0483 C   0  0  0  0  0  0  0  0  0  0  0  0
    4.6611  -10.5677   -0.7371 N   0  0  0  0  0  0  0  0  0  0  0  0
   -0.4314   -5.8161   -2.1069 N   0  0  0  0  0  0  0  0  0  0  0  0
    4.1200   -3.9903   -2.8305 N   0  0  0  0  0  0  0  0  0  0  0  0
    8.1799   -8.2680    1.4609 N   0  0  0  0  0  0  0  0  0  0  0  0
    1.9072   -9.9780   -0.6019 O   0  0  0  0  0  0  0  0  0  0  0  0
   -0.4646  -10.1453    2.8437 O   0  0  0  0  0  0  0  0  0  0  0  0
    2.3884  -10.7844    3.0041 O   0  0  0  0  0  0  0  0  0  0  0  0
    1.1084   -7.7367   -0.4632 O   0  0  0  0  0  0  0  0  0  0  0  0
    3.3632   -8.2711   -0.8639 O   0  0  0  0  0  0  0  0  0  0  0  0
    5.0411   -6.4627   -1.6073 O   0  0  0  0  0  0  0  0  0  0  0  0
    6.8617   -5.5201   -1.5337 O   0  0  0  0  0  0  0  0  0  0  0  0
    5.7017   -8.6402   -0.1337 O   0  0  0  0  0  0  0  0  0  0  0  0
    9.0412   -5.5072    1.3673 O   0  0  0  0  0  0  0  0  0  0  0  0
    8.7712   -4.0466   -2.4653 O   0  0  0  0  0  0  0  0  0  0  0  0
   -1.3671   -8.4386    0.7109 N   0  0  0  0  0  0  0  0  0  0  0  0
  1  2  1  0
  1 23  1  0
  1 26  1  1
  2  3  1  0
  2 33  1  1
  3  4  1  0
  3 24  1  1
  5  4  1  0
  4 25  1  1
  5  6  1  6
 23  5  1  0
  6 19  1  0
  8  7  1  0
  7 12  1  0
  7 21  1  1
  8  9  1  0
  8 28  1  6
  9 10  1  0
  9 27  1  1
 10 11  1  0
 10 26  1  6
 12 11  1  0
 11 20  1  1
 13 14  1  0
 13 28  1  1
 13 29  1  0
 14 15  1  0
 14 30  1  1
 15 16  1  0
 15 22  1  6
 16 17  1  0
 16 31  1  1
 17 18  1  6
 17 29  1  0
 18 32  1  0
M  CHG  5  19   1  20   1  21   1  22   1  33   1
M  END
$$$$
6np5_ligand
     RDKit          3D

 33 35  0  0  0  0  0  0  0  0999 V2000
    0.8443   -9.0112   -0.5551 C   0  0  2  0  0  0  0  0  0  0  0  0
   -0.2146   -9.4014    0.5726 C   0  0  1  0  0  0  0  0  0  0  0  0
    0.5689   -9.5765    1.8924 C   0  0  2  0  0  0  0  0  0  0  0  0
    1.7070  -10.5935    1.7767 C   0  0  1  0  0  0  0  0  0  0  0  0
    2.6123  -10.0913    0.6086 C   0  0  1  0  0  0  0  0  0  0  0  0
    3.8095  -11.1810    0.3508 C   0  0  0  0  0  0  0  0  0  0  0  0
    3.2741   -5.0350   -2.6415 C   0  0  1  0  0  0  0  0  0  0  0  0
    3.7735   -5.9737   -1.5577 C   0  0  1  0  0  0  0  0  0  0  0  0
    2.9648   -7.2073   -1.6713 C   0  0  2  0  0  0  0  0  0  0  0  0
    1.5811   -6.9013   -1.3326 C   0  0  1  0  0  0  0  0  0  0  0  0
    0.9997   -6.0003   -2.2954 C   0  0  2  0  0  0  0  0  0  0  0  0
    1.8207   -4.7306   -2.2113 C   0  0  0  0  0  0  0  0  0  0  0  0
    6.1493   -6.7074   -1.5043 C   0  0  1  0  0  0  0  0  0  0  0  0
    6.6696   -7.6702   -0.4858 C   0  0  1  0  0  0  0  0  0  0  0  0
    7.6933   -7.2273    0.4837 C   0  0  2  0  0  0  0  0  0  0  0  0
    8.5458   -6.0217    0.2316 C   0  0  1  0  0  0  0  0  0  0  0  0
    7.7067   -4.9771   -0.5706 C   0  0  1  0  0  0  0  0  0  0  0  0
    8.7021   -3.7683   -1.0400 C   0  0  0  0  0  0  0  0  0  0  0  0
    4.6497  -10.5435   -0.7511 N   0  0  0  0  0  0  0  0  0  0  0  0
   -0.3615   -5.7058   -2.0390 N   0  0  0  0  0  0  0  0  0  0  0  0
    4.1730   -3.8858   -2.8037 N   0  0  0  0  0  0  0  0  0  0  0  0
    8.2333   -8.2038    1.4829 N   0  0  0  0  0  0  0  0  0  0  0  0
    1.9075   -9.9293   -0.6005 O   0  0  0  0  0  0  0  0  0  0  0  0
   -0.4696  -10.0925    2.8611 O   0  0  0  0  0  0  0  0  0  0  0  0
    2.4149  -10.6534    3.0136 O   0  0  0  0  0  0  0  0  0  0  0  0
    1.1521   -7.6775   -0.4504 O   0  0  0  0  0  0  0  0  0  0  0  0
    3.4595   -8.1461   -0.7922 O   0  0  0  0  0  0  0  0  0  0  0  0
    5.0981   -6.4068   -1.6338 O   0  0  0  0  0  0  0  0  0  0  0  0
    6.9613   -5.4869   -1.5974 O   0  0  0  0  0  0  0  0  0  0  0  0
    5.8551   -8.6314   -0.2381 O   0  0  0  0  0  0  0  0  0  0  0  0
    8.9838   -5.4105    1.4397 O   0  0  0  0  0  0  0  0  0  0  0  0
    8.9040   -4.0019   -2.4582 O   0  0  0  0  0  0  0  0  0  0  0  0
   -1.3528   -8.3564    0.7297 N   0  0  0  0  0  0  0  0  0  0  0  0
  1  2  1  0
  1 23  1  0
  1 26  1  1
  2  3  1  0
  2 33  1  1
  3  4  1  0
  3 24  1  1
  5  4  1  0
  4 25  1  1
  5  6  1  6
 23  5  1  0
  6 19  1  0
  8  7  1  0
  7 12  1  0
  7 21  1  1
  8  9  1  0
  8 28  1  6
  9 10  1  0
  9 27  1  1
 10 11  1  0
 10 26  1  6
 12 11  1  0
 11 20  1  1
 13 14  1  0
 13 28  1  1
 13 29  1  0
 14 15  1  0
 14 30  1  1
 15 16  1  0
 15 22  1  6
 16 17  1  0
 16 31  1  1
 17 18  1  6
 17 29  1  0
 18 32  1  0
M  CHG  5  19   1  20   1  21   1  22   1  33   1
M  END
$$$$
6np5_ligand
     RDKit          3D

 33 35  0  0  0  0  0  0  0  0999 V2000
    0.8577   -9.1096   -0.6484 C   0  0  2  0  0  0  0  0  0  0  0  0
   -0.1885   -9.4909    0.5252 C   0  0  1  0  0  0  0  0  0  0  0  0
    0.6171   -9.6106    1.8277 C   0  0  2  0  0  0  0  0  0  0  0  0
    1.7683  -10.6152    1.7181 C   0  0  1  0  0  0  0  0  0  0  0  0
    2.6608  -10.1367    0.5120 C   0  0  1  0  0  0  0  0  0  0  0  0
    3.8813  -11.2057    0.2710 C   0  0  0  0  0  0  0  0  0  0  0  0
    3.3315   -5.0810   -2.6336 C   0  0  1  0  0  0  0  0  0  0  0  0
    3.8548   -6.0654   -1.6142 C   0  0  1  0  0  0  0  0  0  0  0  0
    3.0271   -7.2989   -1.7231 C   0  0  2  0  0  0  0  0  0  0  0  0
    1.6232   -7.0058   -1.3978 C   0  0  1  0  0  0  0  0  0  0  0  0
    1.0648   -6.0799   -2.3408 C   0  0  2  0  0  0  0  0  0  0  0  0
    1.8754   -4.7933   -2.1699 C   0  0  0  0  0  0  0  0  0  0  0  0
    6.2945   -6.7482   -1.6272 C   0  0  1  0  0  0  0  0  0  0  0  0
    6.8390   -7.7112   -0.6104 C   0  0  1  0  0  0  0  0  0  0  0  0
    7.8504   -7.2622    0.3578 C   0  0  2  0  0  0  0  0  0  0  0  0
    8.6593   -6.0121    0.1618 C   0  0  1  0  0  0  0  0  0  0  0  0
    7.8017   -4.9835   -0.6452 C   0  0  1  0  0  0  0  0  0  0  0  0
    8.7516   -3.7642   -1.1214 C   0  0  0  0  0  0  0  0  0  0  0  0
    4.6960  -10.5798   -0.8343 N   0  0  0  0  0  0  0  0  0  0  0  0
   -0.3211   -5.8510   -2.1482 N   0  0  0  0  0  0  0  0  0  0  0  0
    4.2167   -3.9239   -2.7654 N   0  0  0  0  0  0  0  0  0  0  0  0
    8.3845   -8.1688    1.3824 N   0  0  0  0  0  0  0  0  0  0  0  0
    1.9351  -10.0196   -0.6894 O   0  0  0  0  0  0  0  0  0  0  0  0
   -0.3759  -10.1140    2.8399 O   0  0  0  0  0  0  0  0  0  0  0  0
    2.5002  -10.6372    2.9586 O   0  0  0  0  0  0  0  0  0  0  0  0
    1.1465   -7.7924   -0.5539 O   0  0  0  0  0  0  0  0  0  0  0  0
    3.5135   -8.2260   -0.8407 O   0  0  0  0  0  0  0  0  0  0  0  0
    5.2309   -6.5059   -1.7897 O   0  0  0  0  0  0  0  0  0  0  0  0
    7.0432   -5.4942   -1.6797 O   0  0  0  0  0  0  0  0  0  0  0  0
    6.0779   -8.7127   -0.4067 O   0  0  0  0  0  0  0  0  0  0  0  0
    9.0433   -5.3642    1.3701 O   0  0  0  0  0  0  0  0  0  0  0  0
    8.9399   -3.9584   -2.5276 O   0  0  0  0  0  0  0  0  0  0  0  0
   -1.3615   -8.4549    0.6750 N   0  0  0  0  0  0  0  0  0  0  0  0
  1  2  1  0
  1 23  1  0
  1 26  1  1
  2  3  1  0
  2 33  1  1
  3  4  1  0
  3 24  1  1
  5  4  1  0
  4 25  1  1
  5  6  1  6
 23  5  1  0
  6 19  1  0
  8  7  1  0
  7 12  1  0
  7 21  1  1
  8  9  1  0
  8 28  1  6
  9 10  1  0
  9 27  1  1
 10 11  1  0
 10 26  1  6
 12 11  1  0
 11 20  1  1
 13 14  1  0
 13 28  1  1
 13 29  1  0
 14 15  1  0
 14 30  1  1
 15 16  1  0
 15 22  1  6
 16 17  1  0
 16 31  1  1
 17 18  1  6
 17 29  1  0
 18 32  1  0
M  CHG  5  19   1  20   1  21   1  22   1  33   1
M  END
$$$$
6np5_ligand
     RDKit          3D

 33 35  0  0  0  0  0  0  0  0999 V2000
    1.3578  -11.6171   -0.7002 C   0  0  2  0  0  0  0  0  0  0  0  0
    0.3117  -11.9984    0.4734 C   0  0  1  0  0  0  0  0  0  0  0  0
    1.1173  -12.1181    1.7758 C   0  0  2  0  0  0  0  0  0  0  0  0
    2.2684  -13.1227    1.6663 C   0  0  1  0  0  0  0  0  0  0  0  0
    3.1609  -12.6442    0.4602 C   0  0  1  0  0  0  0  0  0  0  0  0
    4.3814  -13.7132    0.2191 C   0  0  0  0  0  0  0  0  0  0  0  0
    3.8317   -7.5884   -2.6854 C   0  0  1  0  0  0  0  0  0  0  0  0
    4.3550   -8.5728   -1.6661 C   0  0  1  0  0  0  0  0  0  0  0  0
    3.5272   -9.8063   -1.7749 C   0  0  2  0  0  0  0  0  0  0  0  0
    2.1233   -9.5133   -1.4496 C   0  0  1  0  0  0  0  0  0  0  0  0
    1.5649   -8.5873   -2.3926 C   0  0  2  0  0  0  0  0  0  0  0  0
    2.3756   -7.3007   -2.2218 C   0  0  0  0  0  0  0  0  0  0  0  0
    6.7946   -9.2557   -1.6791 C   0  0  1  0  0  0  0  0  0  0  0  0
    7.3392  -10.2187   -0.6622 C   0  0  1  0  0  0  0  0  0  0  0  0
    8.3506   -9.7697    0.3059 C   0  0  2  0  0  0  0  0  0  0  0  0
    9.1594   -8.5195    0.1100 C   0  0  1  0  0  0  0  0  0  0  0  0
    8.3019   -7.4909   -0.6971 C   0  0  1  0  0  0  0  0  0  0  0  0
    9.2517   -6.2716   -1.1732 C   0  0  0  0  0  0  0  0  0  0  0  0
    5.1962  -13.0873   -0.8862 N   0  0  0  0  0  0  0  0  0  0  0  0
    0.1790   -8.3584   -2.2000 N   0  0  0  0  0  0  0  0  0  0  0  0
    4.7169   -6.4313   -2.8172 N   0  0  0  0  0  0  0  0  0  0  0  0
    8.8846  -10.6762    1.3305 N   0  0  0  0  0  0  0  0  0  0  0  0
    2.4353  -12.5270   -0.7412 O   0  0  0  0  0  0  0  0  0  0  0  0
    0.1242  -12.6214    2.7881 O   0  0  0  0  0  0  0  0  0  0  0  0
    3.0003  -13.1446    2.9068 O   0  0  0  0  0  0  0  0  0  0  0  0
    1.6467  -10.2998   -0.6057 O   0  0  0  0  0  0  0  0  0  0  0  0
    4.0136  -10.7334   -0.8925 O   0  0  0  0  0  0  0  0  0  0  0  0
    5.7310   -9.0133   -1.8415 O   0  0  0  0  0  0  0  0  0  0  0  0
    7.5433   -8.0017   -1.7315 O   0  0  0  0  0  0  0  0  0  0  0  0
    6.5781  -11.2201   -0.4585 O   0  0  0  0  0  0  0  0  0  0  0  0
    9.5434   -7.8716    1.3182 O   0  0  0  0  0  0  0  0  0  0  0  0
    9.4400   -6.4659   -2.5795 O   0  0  0  0  0  0  0  0  0  0  0  0
   -0.8613  -10.9623    0.6231 N   0  0  0  0  0  0  0  0  0  0  0  0
  1  2  1  0
  1 23  1  0
  1 26  1  1
  2  3  1  0
  2 33  1  1
  3  4  1  0
  3 24  1  1
  5  4  1  0
  4 25  1  1
  5  6  1  6
 23  5  1  0
  6 19  1  0
  8  7  1  0
  7 12  1  0
  7 21  1  1
  8  9  1  0
  8 28  1  6
  9 10  1  0
  9 27  1  1
 10 11  1  0
 10 26  1  6
 12 11  1  0
 11 20  1  1
 13 14  1  0
 13 28  1  1
 13 29  1  0
 14 15  1  0
 14 30  1  1
 15 16  1  0
 15 22  1  6
 16 17  1  0
 16 31  1  1
 17 18  1  6
 17 29  1  0
 18 32  1  0
M  CHG  5  19   1  20   1  21   1  22   1  33   1
M  END
$$$$
