6np5_ligand
     RDKit          3D

 33 35  0  0  0  0  0  0  0  0999 V2000
    5.4071    3.2450    8.8153 C   0  0  2  0  0  0  0  0  0  0  0  0
    4.7066    4.6930    9.3521 C   0  0  1  0  0  0  0  0  0  0  0  0
    5.5821    5.0944   10.4523 C   0  0  2  0  0  0  0  0  0  0  0  0
    6.6879    4.1973   11.2107 C   0  0  2  0  0  0  0  0  0  0  0  0
    7.1459    2.8241   10.3202 C   0  0  1  0  0  0  0  0  0  0  0  0
    7.6871    1.5025   10.4376 C   0  0  0  0  0  0  0  0  0  0  0  0
    5.0762    0.6842    4.3109 C   0  0  2  0  0  0  0  0  0  0  0  0
    5.7836    1.8815    4.8232 C   0  0  2  0  0  0  0  0  0  0  0  0
    4.8063    2.0502    5.8294 C   0  0  1  0  0  0  0  0  0  0  0  0
    5.2891    2.1841    6.9271 C   0  0  2  0  0  0  0  0  0  0  0  0
    4.7764    0.9746    6.4373 C   0  0  1  0  0  0  0  0  0  0  0  0
    5.0335    0.2159    5.1239 C   0  0  0  0  0  0  0  0  0  0  0  0
    7.0892    2.2775    3.5221 C   0  0  1  0  0  0  0  0  0  0  0  0
    6.1193    3.5811    2.9536 C   0  0  2  0  0  0  0  0  0  0  0  0
    6.8640    3.7710    1.5976 C   0  0  2  0  0  0  0  0  0  0  0  0
    8.2073    3.2978    0.9541 C   0  0  1  0  0  0  0  0  0  0  0  0
    8.8771    1.8499    2.0485 C   0  0  2  0  0  0  0  0  0  0  0  0
   10.1868    0.2589    1.8306 C   0  0  0  0  0  0  0  0  0  0  0  0
    8.3173    0.6674   10.4993 N   0  0  0  0  0  0  0  0  0  0  0  0
    4.2198    0.3100    7.6327 N   0  0  0  0  0  0  0  0  0  0  0  0
    4.9809    0.1815    2.9543 N   0  0  0  0  0  0  0  0  0  0  0  0
    5.8189    5.4462    1.2091 N   0  0  0  0  0  0  0  0  0  0  0  0
    6.4645    2.4315    9.4086 O   0  0  0  0  0  0  0  0  0  0  0  0
    4.6159    6.4952   11.2642 O   0  0  0  0  0  0  0  0  0  0  0  0
    7.1843    3.9800   12.3243 O   0  0  0  0  0  0  0  0  0  0  0  0
    5.4489    2.9340    7.7210 O   0  0  0  0  0  0  0  0  0  0  0  0
    5.5216    3.5108    6.4230 O   0  0  0  0  0  0  0  0  0  0  0  0
    6.1776    2.2061    4.4506 O   0  0  0  0  0  0  0  0  0  0  0  0
    8.3640    1.1181    3.2626 O   0  0  0  0  0  0  0  0  0  0  0  0
    5.1963    4.4883    4.1347 O   0  0  0  0  0  0  0  0  0  0  0  0
    8.5808    3.1036   -0.0351 O   0  0  0  0  0  0  0  0  0  0  0  0
   10.7048   -0.3120    2.9320 O   0  0  0  0  0  0  0  0  0  0  0  0
    3.4259    5.3189    8.1545 N   0  0  0  0  0  0  0  0  0  0  0  0
  1  2  1  0
  1 23  1  0
  1 26  1  6
  2  3  1  0
  2 33  1  6
  3  4  1  0
  3 24  1  1
  5  4  1  0
  4 25  1  6
  5  6  1  1
 23  5  1  0
  6 19  1  0
  8  7  1  0
  7 12  1  0
  7 21  1  1
  8  9  1  0
  8 28  1  1
  9 10  1  0
  9 27  1  1
 10 11  1  0
 10 26  1  6
 12 11  1  0
 11 20  1  6
 13 14  1  0
 13 28  1  6
 13 29  1  0
 14 15  1  0
 14 30  1  6
 15 16  1  0
 15 22  1  1
 16 17  1  0
 16 31  1  6
 17 18  1  1
 17 29  1  0
 18 32  1  0
M  CHG  5  19   1  20   1  21   1  22   1  33   1
M  END
$$$$
6np5_ligand
     RDKit          3D

 33 35  0  0  0  0  0  0  0  0999 V2000
    4.3700    3.0028    8.1632 C   0  0  2  0  0  0  0  0  0  0  0  0
    3.7992    4.3493    8.9117 C   0  0  1  0  0  0  0  0  0  0  0  0
    4.9521    5.2005    9.4986 C   0  0  1  0  0  0  0  0  0  0  0  0
    6.4660    3.9526    9.9973 C   0  0  2  0  0  0  0  0  0  0  0  0
    6.7527    2.6004    9.9881 C   0  0  2  0  0  0  0  0  0  0  0  0
    7.1286    1.0244    9.7115 C   0  0  0  0  0  0  0  0  0  0  0  0
    4.3588    0.5600    4.3308 C   0  0  1  0  0  0  0  0  0  0  0  0
    5.2466    1.9108    4.8390 C   0  0  2  0  0  0  0  0  0  0  0  0
    3.9214    3.6687    6.0292 C   0  0  1  0  0  0  0  0  0  0  0  0
    4.2673    2.2829    7.0776 C   0  0  1  0  0  0  0  0  0  0  0  0
    3.9374    0.8940    6.9933 C   0  0  1  0  0  0  0  0  0  0  0  0
    3.8109    0.0771    5.8035 C   0  0  0  0  0  0  0  0  0  0  0  0
    6.7347    2.9901    3.4220 C   0  0  2  0  0  0  0  0  0  0  0  0
    6.3282    4.5227    3.3075 C   0  0  2  0  0  0  0  0  0  0  0  0
    7.6942    4.7633    1.8784 C   0  0  1  0  0  0  0  0  0  0  0  0
    9.0231    3.7686    0.9449 C   0  0  2  0  0  0  0  0  0  0  0  0
    9.0534    2.6237    1.8340 C   0  0  2  0  0  0  0  0  0  0  0  0
   10.6388    1.1314    1.0434 C   0  0  0  0  0  0  0  0  0  0  0  0
    8.0040    0.3003    9.6289 N   0  0  0  0  0  0  0  0  0  0  0  0
    3.8773    0.4040    8.1138 N   0  0  0  0  0  0  0  0  0  0  0  0
    4.1685    0.6256    3.1552 N   0  0  0  0  0  0  0  0  0  0  0  0
    7.8713    6.2348    1.0940 N   0  0  0  0  0  0  0  0  0  0  0  0
    5.6381    1.8745    8.7076 O   0  0  0  0  0  0  0  0  0  0  0  0
    4.8064    6.8664    9.2536 O   0  0  0  0  0  0  0  0  0  0  0  0
    7.5330    3.7559   10.4379 O   0  0  0  0  0  0  0  0  0  0  0  0
    4.9170    2.7701    7.9789 O   0  0  0  0  0  0  0  0  0  0  0  0
    5.3871    4.3478    5.7229 O   0  0  0  0  0  0  0  0  0  0  0  0
    5.8939    2.5033    4.3003 O   0  0  0  0  0  0  0  0  0  0  0  0
    7.9027    2.1339    2.8111 O   0  0  0  0  0  0  0  0  0  0  0  0
    5.8508    5.3667    4.1324 O   0  0  0  0  0  0  0  0  0  0  0  0
   10.2190    4.3975   -0.1270 O   0  0  0  0  0  0  0  0  0  0  0  0
   11.0255    1.0780    0.5692 O   0  0  0  0  0  0  0  0  0  0  0  0
    2.2066    4.2661    7.8501 N   0  0  0  0  0  0  0  0  0  0  0  0
  1  2  1  0
  1 23  1  0
  1 26  1  6
  2  3  1  0
  2 33  1  6
  3  4  1  0
  3 24  1  1
  5  4  1  0
  4 25  1  6
  5  6  1  1
 23  5  1  0
  6 19  1  0
  8  7  1  0
  7 12  1  0
  7 21  1  6
  8  9  1  0
  8 28  1  1
  9 10  1  0
  9 27  1  6
 10 11  1  0
 10 26  1  6
 12 11  1  0
 11 20  1  6
 13 14  1  0
 13 28  1  6
 13 29  1  0
 14 15  1  0
 14 30  1  6
 15 16  1  0
 15 22  1  1
 16 17  1  0
 16 31  1  6
 17 18  1  1
 17 29  1  0
 18 32  1  0
M  CHG  5  19   1  20   1  21   1  22   1  33   1
M  END
$$$$
6np5_ligand
     RDKit          3D

 33 35  0  0  0  0  0  0  0  0999 V2000
    5.9194    4.3702    8.8863 C   0  0  2  0  0  0  0  0  0  0  0  0
    5.3554    5.8528    9.8180 C   0  0  1  0  0  0  0  0  0  0  0  0
    6.6213    6.9915   10.0615 C   0  0  2  0  0  0  0  0  0  0  0  0
    7.4638    5.6638   10.0623 C   0  0  1  0  0  0  0  0  0  0  0  0
    8.0596    4.5363    9.5874 C   0  0  1  0  0  0  0  0  0  0  0  0
    9.0737    4.2186    9.9869 C   0  0  0  0  0  0  0  0  0  0  0  0
    4.9683    1.8257    4.7412 C   0  0  1  0  0  0  0  0  0  0  0  0
    5.9885    2.6195    5.2890 C   0  0  2  0  0  0  0  0  0  0  0  0
    5.0878    2.5801    5.1983 C   0  0  1  0  0  0  0  0  0  0  0  0
    5.0344    3.2377    7.2093 C   0  0  1  0  0  0  0  0  0  0  0  0
    3.9639    2.6988    7.0746 C   0  0  1  0  0  0  0  0  0  0  0  0
    3.7447    2.0297    5.9185 C   0  0  0  0  0  0  0  0  0  0  0  0
    7.3526    2.5837    4.2626 C   0  0  2  0  0  0  0  0  0  0  0  0
    6.6298    3.7504    3.3700 C   0  0  1  0  0  0  0  0  0  0  0  0
    7.0383    3.8415    2.4081 C   0  0  1  0  0  0  0  0  0  0  0  0
    8.7170    3.3040    2.1623 C   0  0  1  0  0  0  0  0  0  0  0  0
    8.9868    1.8728    3.0069 C   0  0  1  0  0  0  0  0  0  0  0  0
   10.6751    0.8707    2.8355 C   0  0  0  0  0  0  0  0  0  0  0  0
    9.4043    3.0441   10.2736 N   0  0  0  0  0  0  0  0  0  0  0  0
    3.2345    2.0010    7.7265 N   0  0  0  0  0  0  0  0  0  0  0  0
    4.8161    1.7765    3.6575 N   0  0  0  0  0  0  0  0  0  0  0  0
    6.1081    4.2608    1.3185 N   0  0  0  0  0  0  0  0  0  0  0  0
    6.8903    3.9613    8.9000 O   0  0  0  0  0  0  0  0  0  0  0  0
    5.9947    7.8564   10.1758 O   0  0  0  0  0  0  0  0  0  0  0  0
    7.8936    6.3179   10.9771 O   0  0  0  0  0  0  0  0  0  0  0  0
    5.6613    3.7814    8.1841 O   0  0  0  0  0  0  0  0  0  0  0  0
    6.3951    4.0569    6.2271 O   0  0  0  0  0  0  0  0  0  0  0  0
    6.6737    2.9276    5.0020 O   0  0  0  0  0  0  0  0  0  0  0  0
    8.2308    2.2099    4.3321 O   0  0  0  0  0  0  0  0  0  0  0  0
    4.6211    3.5776    3.5215 O   0  0  0  0  0  0  0  0  0  0  0  0
    8.7652    3.6493    1.0211 O   0  0  0  0  0  0  0  0  0  0  0  0
   10.7637   -0.2893    3.0093 O   0  0  0  0  0  0  0  0  0  0  0  0
    2.6214    5.7889    8.8024 N   0  0  0  0  0  0  0  0  0  0  0  0
  1  2  1  0
  1 23  1  0
  1 26  1  6
  2  3  1  0
  2 33  1  6
  3  4  1  0
  3 24  1  1
  5  4  1  0
  4 25  1  6
  5  6  1  1
 23  5  1  0
  6 19  1  0
  8  7  1  0
  7 12  1  0
  7 21  1  6
  8  9  1  0
  8 28  1  1
  9 10  1  0
  9 27  1  1
 10 11  1  0
 10 26  1  1
 12 11  1  0
 11 20  1  6
 13 14  1  0
 13 28  1  6
 13 29  1  0
 14 15  1  0
 14 30  1  6
 15 16  1  0
 15 22  1  1
 16 17  1  0
 16 31  1  6
 17 18  1  1
 17 29  1  0
 18 32  1  0
M  CHG  5  19   1  20   1  21   1  22   1  33   1
M  END
$$$$
6np5_ligand
     RDKit          3D

 33 35  0  0  0  0  0  0  0  0999 V2000
    4.0412    3.2617    9.3746 C   0  0  2  0  0  0  0  0  0  0  0  0
    3.2467    4.2368   10.2000 C   0  0  2  0  0  0  0  0  0  0  0  0
    4.1040    5.1787   10.8787 C   0  0  2  0  0  0  0  0  0  0  0  0
    5.2786    4.5371   11.4334 C   0  0  1  0  0  0  0  0  0  0  0  0
    6.0799    3.2878   10.8692 C   0  0  1  0  0  0  0  0  0  0  0  0
    6.8323    2.2173   11.3794 C   0  0  0  0  0  0  0  0  0  0  0  0
    4.9608    1.1335    4.8018 C   0  0  2  0  0  0  0  0  0  0  0  0
    5.6365    2.2779    4.8715 C   0  0  2  0  0  0  0  0  0  0  0  0
    4.7467    3.6118    6.2525 C   0  0  1  0  0  0  0  0  0  0  0  0
    4.3648    2.5305    7.1798 C   0  0  2  0  0  0  0  0  0  0  0  0
    3.7341    0.9131    6.7515 C   0  0  1  0  0  0  0  0  0  0  0  0
    4.2915    0.3832    5.7986 C   0  0  0  0  0  0  0  0  0  0  0  0
    7.8742    3.5896    2.9340 C   0  0  1  0  0  0  0  0  0  0  0  0
    7.8848    5.3902    2.6664 C   0  0  2  0  0  0  0  0  0  0  0  0
    9.0414    6.1831    2.5514 C   0  0  1  0  0  0  0  0  0  0  0  0
    9.8603    5.2974    1.0668 C   0  0  1  0  0  0  0  0  0  0  0  0
    9.7977    3.6083    1.3882 C   0  0  2  0  0  0  0  0  0  0  0  0
   10.7309    2.7866    0.0932 C   0  0  0  0  0  0  0  0  0  0  0  0
    7.3809    1.6842   11.4935 N   0  0  0  0  0  0  0  0  0  0  0  0
    2.8967    0.5687    7.7093 N   0  0  0  0  0  0  0  0  0  0  0  0
    5.1607    0.6192    3.1452 N   0  0  0  0  0  0  0  0  0  0  0  0
    8.5688    8.1535    1.9232 N   0  0  0  0  0  0  0  0  0  0  0  0
    5.1768    2.6540   10.0653 O   0  0  0  0  0  0  0  0  0  0  0  0
    3.6774    6.2555   12.0990 O   0  0  0  0  0  0  0  0  0  0  0  0
    6.2470    4.6607   12.0534 O   0  0  0  0  0  0  0  0  0  0  0  0
    4.2336    2.9212    8.2795 O   0  0  0  0  0  0  0  0  0  0  0  0
    5.6735    4.6796    6.0142 O   0  0  0  0  0  0  0  0  0  0  0  0
    6.6803    3.0062    4.1903 O   0  0  0  0  0  0  0  0  0  0  0  0
    8.4144    2.6937    2.1259 O   0  0  0  0  0  0  0  0  0  0  0  0
    6.9854    6.1251    2.8968 O   0  0  0  0  0  0  0  0  0  0  0  0
   10.1799    6.8896    0.2130 O   0  0  0  0  0  0  0  0  0  0  0  0
   10.9480    1.9077   -0.3317 O   0  0  0  0  0  0  0  0  0  0  0  0
    1.9515    4.0115   10.1666 N   0  0  0  0  0  0  0  0  0  0  0  0
  1  2  1  0
  1 23  1  0
  1 26  1  6
  2  3  1  0
  2 33  1  6
  3  4  1  0
  3 24  1  1
  5  4  1  0
  4 25  1  6
  5  6  1  1
 23  5  1  0
  6 19  1  0
  8  7  1  0
  7 12  1  0
  7 21  1  6
  8  9  1  0
  8 28  1  1
  9 10  1  0
  9 27  1  6
 10 11  1  0
 10 26  1  6
 12 11  1  0
 11 20  1  6
 13 14  1  0
 13 28  1  6
 13 29  1  0
 14 15  1  0
 14 30  1  6
 15 16  1  0
 15 22  1  1
 16 17  1  0
 16 31  1  6
 17 18  1  1
 17 29  1  0
 18 32  1  0
M  CHG  5  19   1  20   1  21   1  22   1  33   1
M  END
$$$$
6np5_ligand
     RDKit          3D

 33 35  0  0  0  0  0  0  0  0999 V2000
    5.7139    2.7206    8.8264 C   0  0  2  0  0  0  0  0  0  0  0  0
    4.8963    3.7219    9.4780 C   0  0  2  0  0  0  0  0  0  0  0  0
    5.6534    4.7629   10.3732 C   0  0  2  0  0  0  0  0  0  0  0  0
    6.9491    4.0594   10.7901 C   0  0  1  0  0  0  0  0  0  0  0  0
    7.5892    2.5478    9.9520 C   0  0  1  0  0  0  0  0  0  0  0  0
    8.2611    1.2720   10.6821 C   0  0  0  0  0  0  0  0  0  0  0  0
    5.4175    0.6877    3.5287 C   0  0  1  0  0  0  0  0  0  0  0  0
    6.4406    1.8350    4.3326 C   0  0  2  0  0  0  0  0  0  0  0  0
    5.9510    1.8640    6.0216 C   0  0  1  0  0  0  0  0  0  0  0  0
    5.6746    1.6900    6.7968 C   0  0  1  0  0  0  0  0  0  0  0  0
    5.0613    0.3834    6.2427 C   0  0  2  0  0  0  0  0  0  0  0  0
    4.6545    0.1824    4.7088 C   0  0  0  0  0  0  0  0  0  0  0  0
    7.7247    3.0532    2.7370 C   0  0  2  0  0  0  0  0  0  0  0  0
    6.6808    4.5856    2.0758 C   0  0  1  0  0  0  0  0  0  0  0  0
    7.3073    5.1003    1.0078 C   0  0  2  0  0  0  0  0  0  0  0  0
    9.0743    4.8849    0.4760 C   0  0  1  0  0  0  0  0  0  0  0  0
    9.4130    3.1794    1.4225 C   0  0  1  0  0  0  0  0  0  0  0  0
   11.0375    2.1967    1.2943 C   0  0  0  0  0  0  0  0  0  0  0  0
    8.6426    0.5781   10.7602 N   0  0  0  0  0  0  0  0  0  0  0  0
    4.8261   -0.2362    7.5034 N   0  0  0  0  0  0  0  0  0  0  0  0
    5.4111    0.5309    2.2553 N   0  0  0  0  0  0  0  0  0  0  0  0
    5.9471    6.2894    0.7508 N   0  0  0  0  0  0  0  0  0  0  0  0
    6.7644    2.0942    9.0581 O   0  0  0  0  0  0  0  0  0  0  0  0
    5.0017    5.9338   10.9937 O   0  0  0  0  0  0  0  0  0  0  0  0
    7.6431    4.4834   11.1532 O   0  0  0  0  0  0  0  0  0  0  0  0
    5.9043    1.9461    7.7519 O   0  0  0  0  0  0  0  0  0  0  0  0
    7.5675    3.2862    6.0335 O   0  0  0  0  0  0  0  0  0  0  0  0
    7.0674    2.5824    3.7446 O   0  0  0  0  0  0  0  0  0  0  0  0
    9.1295    2.5219    2.6346 O   0  0  0  0  0  0  0  0  0  0  0  0
    4.9449    4.4428    2.3712 O   0  0  0  0  0  0  0  0  0  0  0  0
    9.6073    5.5903   -0.3327 O   0  0  0  0  0  0  0  0  0  0  0  0
   11.6906    1.6712    1.6214 O   0  0  0  0  0  0  0  0  0  0  0  0
    3.3407    3.2279    9.4631 N   0  0  0  0  0  0  0  0  0  0  0  0
  1  2  1  0
  1 23  1  0
  1 26  1  6
  2  3  1  0
  2 33  1  6
  3  4  1  0
  3 24  1  1
  5  4  1  0
  4 25  1  6
  5  6  1  1
 23  5  1  0
  6 19  1  0
  8  7  1  0
  7 12  1  0
  7 21  1  6
  8  9  1  0
  8 28  1  1
  9 10  1  0
  9 27  1  6
 10 11  1  0
 10 26  1  1
 12 11  1  0
 11 20  1  1
 13 14  1  0
 13 28  1  6
 13 29  1  0
 14 15  1  0
 14 30  1  6
 15 16  1  0
 15 22  1  1
 16 17  1  0
 16 31  1  6
 17 18  1  1
 17 29  1  0
 18 32  1  0
M  CHG  5  19   1  20   1  21   1  22   1  33   1
M  END
$$$$
6np5_ligand
     RDKit          3D

 33 35  0  0  0  0  0  0  0  0999 V2000
    5.7587    3.1018    8.9196 C   0  0  2  0  0  0  0  0  0  0  0  0
    5.5298    4.2773    9.7156 C   0  0  2  0  0  0  0  0  0  0  0  0
    6.5975    4.7366   10.7458 C   0  0  2  0  0  0  0  0  0  0  0  0
    7.6919    3.8642   11.2560 C   0  0  1  0  0  0  0  0  0  0  0  0
    7.8607    2.3045   10.3936 C   0  0  1  0  0  0  0  0  0  0  0  0
    8.0210    1.0703   10.9205 C   0  0  0  0  0  0  0  0  0  0  0  0
    4.5663    0.8688    4.0748 C   0  0  2  0  0  0  0  0  0  0  0  0
    5.2891    1.9251    4.8164 C   0  0  2  0  0  0  0  0  0  0  0  0
    5.5530    1.8838    6.9053 C   0  0  2  0  0  0  0  0  0  0  0  0
    5.0381    2.3189    6.9587 C   0  0  1  0  0  0  0  0  0  0  0  0
    4.0439    1.2809    6.5024 C   0  0  1  0  0  0  0  0  0  0  0  0
    4.3011    0.5878    4.6480 C   0  0  0  0  0  0  0  0  0  0  0  0
    6.1763    2.4828    3.8807 C   0  0  2  0  0  0  0  0  0  0  0  0
    5.1738    3.9067    3.4965 C   0  0  2  0  0  0  0  0  0  0  0  0
    6.2104    5.0094    2.7804 C   0  0  1  0  0  0  0  0  0  0  0  0
    7.9002    4.6037    2.2582 C   0  0  1  0  0  0  0  0  0  0  0  0
    8.4917    2.5715    2.7037 C   0  0  2  0  0  0  0  0  0  0  0  0
    9.5515    1.4437    2.3932 C   0  0  0  0  0  0  0  0  0  0  0  0
    8.0516    0.4461   11.1373 N   0  0  0  0  0  0  0  0  0  0  0  0
    3.2268    1.6873    8.9295 N   0  0  0  0  0  0  0  0  0  0  0  0
    4.2999    0.0015    3.1427 N   0  0  0  0  0  0  0  0  0  0  0  0
    4.8256    6.1638    2.8227 N   0  0  0  0  0  0  0  0  0  0  0  0
    6.7789    2.0725    9.3519 O   0  0  0  0  0  0  0  0  0  0  0  0
    6.4016    6.1440   11.5817 O   0  0  0  0  0  0  0  0  0  0  0  0
    8.5170    3.8178   11.8215 O   0  0  0  0  0  0  0  0  0  0  0  0
    5.4541    2.8562    7.6723 O   0  0  0  0  0  0  0  0  0  0  0  0
    6.2980    2.7419    7.3888 O   0  0  0  0  0  0  0  0  0  0  0  0
    5.4911    2.4084    4.6141 O   0  0  0  0  0  0  0  0  0  0  0  0
    7.5908    1.6031    3.4840 O   0  0  0  0  0  0  0  0  0  0  0  0
    4.0740    4.3893    4.2003 O   0  0  0  0  0  0  0  0  0  0  0  0
    8.4681    5.8555    1.1074 O   0  0  0  0  0  0  0  0  0  0  0  0
    9.3855    0.5788    2.0182 O   0  0  0  0  0  0  0  0  0  0  0  0
    3.8421    4.2649    9.7903 N   0  0  0  0  0  0  0  0  0  0  0  0
  1  2  1  0
  1 23  1  0
  1 26  1  6
  2  3  1  0
  2 33  1  6
  3  4  1  0
  3 24  1  1
  5  4  1  0
  4 25  1  6
  5  6  1  1
 23  5  1  0
  6 19  1  0
  8  7  1  0
  7 12  1  0
  7 21  1  6
  8  9  1  0
  8 28  1  6
  9 10  1  0
  9 27  1  6
 10 11  1  0
 10 26  1  1
 12 11  1  0
 11 20  1  6
 13 14  1  0
 13 28  1  6
 13 29  1  0
 14 15  1  0
 14 30  1  6
 15 16  1  0
 15 22  1  1
 16 17  1  0
 16 31  1  6
 17 18  1  1
 17 29  1  0
 18 32  1  0
M  CHG  5  19   1  20   1  21   1  22   1  33   1
M  END
$$$$
6np5_ligand
     RDKit          3D

 33 35  0  0  0  0  0  0  0  0999 V2000
    5.6259    3.2806    8.6235 C   0  0  2  0  0  0  0  0  0  0  0  0
    4.9728    4.5858    8.8675 C   0  0  1  0  0  0  0  0  0  0  0  0
    6.2277    5.2134    9.9891 C   0  0  2  0  0  0  0  0  0  0  0  0
    7.5399    4.3359   10.5738 C   0  0  2  0  0  0  0  0  0  0  0  0
    8.0055    2.8698    9.8690 C   0  0  1  0  0  0  0  0  0  0  0  0
    8.9790    1.5371    9.9395 C   0  0  0  0  0  0  0  0  0  0  0  0
    4.8840    0.9404    3.5836 C   0  0  2  0  0  0  0  0  0  0  0  0
    5.7250    2.0411    4.1811 C   0  0  2  0  0  0  0  0  0  0  0  0
    5.7180    2.7769    5.4735 C   0  0  1  0  0  0  0  0  0  0  0  0
    4.8892    2.2269    6.4404 C   0  0  1  0  0  0  0  0  0  0  0  0
    3.8149    0.9626    6.0855 C   0  0  2  0  0  0  0  0  0  0  0  0
    3.8920    0.5625    4.5384 C   0  0  0  0  0  0  0  0  0  0  0  0
    6.9569    2.8400    3.1190 C   0  0  1  0  0  0  0  0  0  0  0  0
    7.1552    4.9159    2.7422 C   0  0  2  0  0  0  0  0  0  0  0  0
    8.1962    5.3048    2.3383 C   0  0  1  0  0  0  0  0  0  0  0  0
    9.3319    4.3577    1.0982 C   0  0  1  0  0  0  0  0  0  0  0  0
    9.0172    2.4990    1.7273 C   0  0  2  0  0  0  0  0  0  0  0  0
   10.1732    0.8201    0.8880 C   0  0  0  0  0  0  0  0  0  0  0  0
    9.7836    0.8293   10.3310 N   0  0  0  0  0  0  0  0  0  0  0  0
    2.9692    1.3462    7.5121 N   0  0  0  0  0  0  0  0  0  0  0  0
    5.3320    0.2782    2.5293 N   0  0  0  0  0  0  0  0  0  0  0  0
    6.7273    7.0856    2.5613 N   0  0  0  0  0  0  0  0  0  0  0  0
    6.9285    2.0685    9.0699 O   0  0  0  0  0  0  0  0  0  0  0  0
    5.7249    6.7333   10.5911 O   0  0  0  0  0  0  0  0  0  0  0  0
    8.1491    4.2786   11.3272 O   0  0  0  0  0  0  0  0  0  0  0  0
    5.4132    2.7236    7.3201 O   0  0  0  0  0  0  0  0  0  0  0  0
    6.4298    3.7231    5.9502 O   0  0  0  0  0  0  0  0  0  0  0  0
    6.0459    2.5262    3.9295 O   0  0  0  0  0  0  0  0  0  0  0  0
    7.9625    1.8254    2.2731 O   0  0  0  0  0  0  0  0  0  0  0  0
    5.5578    5.6177    4.4823 O   0  0  0  0  0  0  0  0  0  0  0  0
    9.6416    5.5951   -0.3686 O   0  0  0  0  0  0  0  0  0  0  0  0
   10.2410   -0.2025    0.8684 O   0  0  0  0  0  0  0  0  0  0  0  0
    4.0833    5.2552    7.7597 N   0  0  0  0  0  0  0  0  0  0  0  0
  1  2  1  0
  1 23  1  0
  1 26  1  6
  2  3  1  0
  2 33  1  6
  3  4  1  0
  3 24  1  1
  5  4  1  0
  4 25  1  6
  5  6  1  1
 23  5  1  0
  6 19  1  0
  8  7  1  0
  7 12  1  0
  7 21  1  6
  8  9  1  0
  8 28  1  1
  9 10  1  0
  9 27  1  6
 10 11  1  0
 10 26  1  1
 12 11  1  0
 11 20  1  6
 13 14  1  0
 13 28  1  6
 13 29  1  0
 14 15  1  0
 14 30  1  6
 15 16  1  0
 15 22  1  1
 16 17  1  0
 16 31  1  6
 17 18  1  1
 17 29  1  0
 18 32  1  0
M  CHG  5  19   1  20   1  21   1  22   1  33   1
M  END
$$$$
6np5_ligand
     RDKit          3D

 33 35  0  0  0  0  0  0  0  0999 V2000
    5.6250    3.2417    8.4141 C   0  0  2  0  0  0  0  0  0  0  0  0
    4.8565    4.3613    9.0799 C   0  0  1  0  0  0  0  0  0  0  0  0
    5.8406    4.8364   10.2867 C   0  0  2  0  0  0  0  0  0  0  0  0
    7.3233    4.2146   10.8463 C   0  0  2  0  0  0  0  0  0  0  0  0
    7.6995    3.0141    9.8317 C   0  0  1  0  0  0  0  0  0  0  0  0
    8.5446    2.2097   10.0606 C   0  0  0  0  0  0  0  0  0  0  0  0
    4.8838    1.0304    3.4090 C   0  0  2  0  0  0  0  0  0  0  0  0
    5.5595    2.4056    3.9041 C   0  0  2  0  0  0  0  0  0  0  0  0
    4.9475    3.1007    5.4484 C   0  0  1  0  0  0  0  0  0  0  0  0
    4.9972    2.4056    6.1740 C   0  0  1  0  0  0  0  0  0  0  0  0
    4.6726    0.8576    5.7991 C   0  0  1  0  0  0  0  0  0  0  0  0
    4.6853    0.4195    4.4894 C   0  0  0  0  0  0  0  0  0  0  0  0
    6.8076    3.3024    2.5395 C   0  0  1  0  0  0  0  0  0  0  0  0
    5.9252    4.9994    2.1706 C   0  0  2  0  0  0  0  0  0  0  0  0
    6.8204    5.4257    1.1357 C   0  0  1  0  0  0  0  0  0  0  0  0
    7.7806    4.7842    0.3985 C   0  0  1  0  0  0  0  0  0  0  0  0
    8.2052    3.0477    1.3571 C   0  0  2  0  0  0  0  0  0  0  0  0
    9.5899    1.7989    0.8077 C   0  0  0  0  0  0  0  0  0  0  0  0
    9.7655    1.8851    9.9213 N   0  0  0  0  0  0  0  0  0  0  0  0
    4.5814    0.3588    7.1595 N   0  0  0  0  0  0  0  0  0  0  0  0
    5.0047    0.7949    2.0178 N   0  0  0  0  0  0  0  0  0  0  0  0
    5.5905    6.7411    0.9205 N   0  0  0  0  0  0  0  0  0  0  0  0
    7.0223    2.5678    8.9703 O   0  0  0  0  0  0  0  0  0  0  0  0
    5.1200    5.8976   11.0729 O   0  0  0  0  0  0  0  0  0  0  0  0
    7.8590    4.4847   11.7343 O   0  0  0  0  0  0  0  0  0  0  0  0
    5.5209    3.0336    7.1738 O   0  0  0  0  0  0  0  0  0  0  0  0
    5.4536    4.5869    5.6427 O   0  0  0  0  0  0  0  0  0  0  0  0
    5.9067    2.8847    3.3726 O   0  0  0  0  0  0  0  0  0  0  0  0
    7.9282    2.2890    2.2553 O   0  0  0  0  0  0  0  0  0  0  0  0
    4.5172    5.5059    3.2479 O   0  0  0  0  0  0  0  0  0  0  0  0
    8.1336    5.2562   -0.5787 O   0  0  0  0  0  0  0  0  0  0  0  0
    9.8852    0.7737    1.0300 O   0  0  0  0  0  0  0  0  0  0  0  0
    3.5411    4.6080    8.0952 N   0  0  0  0  0  0  0  0  0  0  0  0
  1  2  1  0
  1 23  1  0
  1 26  1  6
  2  3  1  0
  2 33  1  6
  3  4  1  0
  3 24  1  1
  5  4  1  0
  4 25  1  6
  5  6  1  1
 23  5  1  0
  6 19  1  0
  8  7  1  0
  7 12  1  0
  7 21  1  1
  8  9  1  0
  8 28  1  1
  9 10  1  0
  9 27  1  6
 10 11  1  0
 10 26  1  6
 12 11  1  0
 11 20  1  6
 13 14  1  0
 13 28  1  6
 13 29  1  0
 14 15  1  0
 14 30  1  6
 15 16  1  0
 15 22  1  1
 16 17  1  0
 16 31  1  6
 17 18  1  1
 17 29  1  0
 18 32  1  0
M  CHG  5  19   1  20   1  21   1  22   1  33   1
M  END
$$$$
6np5_ligand
     RDKit          3D

 33 35  0  0  0  0  0  0  0  0999 V2000
    5.6579    3.2112    8.6212 C   0  0  2  0  0  0  0  0  0  0  0  0
    5.0440    4.2217    9.4869 C   0  0  1  0  0  0  0  0  0  0  0  0
    6.2788    4.9628   10.2437 C   0  0  2  0  0  0  0  0  0  0  0  0
    7.7175    4.4730   10.5454 C   0  0  1  0  0  0  0  0  0  0  0  0
    7.8907    3.2039    9.5789 C   0  0  1  0  0  0  0  0  0  0  0  0
    8.5532    2.5140   10.2025 C   0  0  0  0  0  0  0  0  0  0  0  0
    5.1141    0.9133    3.4291 C   0  0  2  0  0  0  0  0  0  0  0  0
    6.0846    2.1591    4.1085 C   0  0  2  0  0  0  0  0  0  0  0  0
    5.9802    3.2450    5.5064 C   0  0  1  0  0  0  0  0  0  0  0  0
    5.0846    2.2435    6.2899 C   0  0  1  0  0  0  0  0  0  0  0  0
    4.2469    0.7525    5.8151 C   0  0  2  0  0  0  0  0  0  0  0  0
    4.3025    0.3445    4.5994 C   0  0  0  0  0  0  0  0  0  0  0  0
    7.7488    2.9875    2.5682 C   0  0  2  0  0  0  0  0  0  0  0  0
    7.1616    4.7277    1.8651 C   0  0  2  0  0  0  0  0  0  0  0  0
    7.8961    5.3047    1.3045 C   0  0  1  0  0  0  0  0  0  0  0  0
    9.4476    4.7668    0.7514 C   0  0  2  0  0  0  0  0  0  0  0  0
    9.6615    3.0289    1.8409 C   0  0  2  0  0  0  0  0  0  0  0  0
   11.1059    2.1813    1.6589 C   0  0  0  0  0  0  0  0  0  0  0  0
    9.5281    2.1730   10.5123 N   0  0  0  0  0  0  0  0  0  0  0  0
    3.6610    0.4904    7.2699 N   0  0  0  0  0  0  0  0  0  0  0  0
    5.4658    0.7748    1.7876 N   0  0  0  0  0  0  0  0  0  0  0  0
    6.7718    6.6220    0.7798 N   0  0  0  0  0  0  0  0  0  0  0  0
    6.9566    2.6133    9.0603 O   0  0  0  0  0  0  0  0  0  0  0  0
    5.7241    6.0123   10.9906 O   0  0  0  0  0  0  0  0  0  0  0  0
    8.6740    4.7051   11.0990 O   0  0  0  0  0  0  0  0  0  0  0  0
    5.4868    2.6600    7.4072 O   0  0  0  0  0  0  0  0  0  0  0  0
    6.8100    4.1030    5.4934 O   0  0  0  0  0  0  0  0  0  0  0  0
    6.7875    2.6586    3.4759 O   0  0  0  0  0  0  0  0  0  0  0  0
    9.0336    2.1421    2.7434 O   0  0  0  0  0  0  0  0  0  0  0  0
    5.5266    5.2749    2.5391 O   0  0  0  0  0  0  0  0  0  0  0  0
   10.2059    5.2941    0.3913 O   0  0  0  0  0  0  0  0  0  0  0  0
   11.4832    1.3386    1.9210 O   0  0  0  0  0  0  0  0  0  0  0  0
    3.6287    4.1574    8.9324 N   0  0  0  0  0  0  0  0  0  0  0  0
  1  2  1  0
  1 23  1  0
  1 26  1  6
  2  3  1  0
  2 33  1  6
  3  4  1  0
  3 24  1  1
  5  4  1  0
  4 25  1  6
  5  6  1  1
 23  5  1  0
  6 19  1  0
  8  7  1  0
  7 12  1  0
  7 21  1  6
  8  9  1  0
  8 28  1  1
  9 10  1  0
  9 27  1  6
 10 11  1  0
 10 26  1  1
 12 11  1  0
 11 20  1  6
 13 14  1  0
 13 28  1  6
 13 29  1  0
 14 15  1  0
 14 30  1  6
 15 16  1  0
 15 22  1  1
 16 17  1  0
 16 31  1  6
 17 18  1  1
 17 29  1  0
 18 32  1  0
M  CHG  5  19   1  20   1  21   1  22   1  33   1
M  END
$$$$
6np5_ligand
     RDKit          3D

 33 35  0  0  0  0  0  0  0  0999 V2000
    5.0777    3.0174    8.4694 C   0  0  2  0  0  0  0  0  0  0  0  0
    4.4136    3.9899    9.1315 C   0  0  1  0  0  0  0  0  0  0  0  0
    5.5762    4.9082   10.0232 C   0  0  2  0  0  0  0  0  0  0  0  0
    6.8206    4.3696   10.4839 C   0  0  1  0  0  0  0  0  0  0  0  0
    7.2431    3.1221    9.4860 C   0  0  1  0  0  0  0  0  0  0  0  0
    7.9253    2.2973    9.9536 C   0  0  0  0  0  0  0  0  0  0  0  0
    5.0040    0.7353    3.5353 C   0  0  1  0  0  0  0  0  0  0  0  0
    5.9520    1.9394    4.0544 C   0  0  2  0  0  0  0  0  0  0  0  0
    6.0879    3.0305    5.4544 C   0  0  1  0  0  0  0  0  0  0  0  0
    4.9025    1.9715    6.1796 C   0  0  1  0  0  0  0  0  0  0  0  0
    4.0523    0.7380    5.7969 C   0  0  1  0  0  0  0  0  0  0  0  0
    4.0289    0.4089    4.6634 C   0  0  0  0  0  0  0  0  0  0  0  0
    7.6939    2.8546    2.5118 C   0  0  1  0  0  0  0  0  0  0  0  0
    7.3635    4.4212    2.2685 C   0  0  2  0  0  0  0  0  0  0  0  0
    8.3673    4.9191    1.7696 C   0  0  1  0  0  0  0  0  0  0  0  0
    9.3120    4.4485    0.8472 C   0  0  1  0  0  0  0  0  0  0  0  0
    9.3605    2.8356    1.4895 C   0  0  2  0  0  0  0  0  0  0  0  0
   10.5288    1.8265    0.5177 C   0  0  0  0  0  0  0  0  0  0  0  0
    8.4812    1.8477   10.3552 N   0  0  0  0  0  0  0  0  0  0  0  0
    3.5052    0.2820    7.3397 N   0  0  0  0  0  0  0  0  0  0  0  0
    5.3597    0.6031    1.8268 N   0  0  0  0  0  0  0  0  0  0  0  0
    7.6705    6.3430    1.4657 N   0  0  0  0  0  0  0  0  0  0  0  0
    6.3224    2.3892    8.8710 O   0  0  0  0  0  0  0  0  0  0  0  0
    4.8391    5.9777   10.8870 O   0  0  0  0  0  0  0  0  0  0  0  0
    7.5126    4.8440   11.1941 O   0  0  0  0  0  0  0  0  0  0  0  0
    5.0334    2.5780    7.2322 O   0  0  0  0  0  0  0  0  0  0  0  0
    6.8414    3.4488    5.4804 O   0  0  0  0  0  0  0  0  0  0  0  0
    6.9041    2.4061    3.4983 O   0  0  0  0  0  0  0  0  0  0  0  0
    8.4988    1.9794    1.9479 O   0  0  0  0  0  0  0  0  0  0  0  0
    5.9917    4.8878    3.3216 O   0  0  0  0  0  0  0  0  0  0  0  0
    9.6940    4.8903    0.0468 O   0  0  0  0  0  0  0  0  0  0  0  0
   10.1670    0.8746   -0.1002 O   0  0  0  0  0  0  0  0  0  0  0  0
    2.9743    4.1528    8.4493 N   0  0  0  0  0  0  0  0  0  0  0  0
  1  2  1  0
  1 23  1  0
  1 26  1  6
  2  3  1  0
  2 33  1  6
  3  4  1  0
  3 24  1  1
  5  4  1  0
  4 25  1  6
  5  6  1  1
 23  5  1  0
  6 19  1  0
  8  7  1  0
  7 12  1  0
  7 21  1  6
  8  9  1  0
  8 28  1  1
  9 10  1  0
  9 27  1  6
 10 11  1  0
 10 26  1  1
 12 11  1  0
 11 20  1  6
 13 14  1  0
 13 28  1  6
 13 29  1  0
 14 15  1  0
 14 30  1  6
 15 16  1  0
 15 22  1  1
 16 17  1  0
 16 31  1  6
 17 18  1  1
 17 29  1  0
 18 32  1  0
M  CHG  5  19   1  20   1  21   1  22   1  33   1
M  END
$$$$
6np5_ligand
     RDKit          3D

 33 35  0  0  0  0  0  0  0  0999 V2000
    4.7431    2.8472    8.9061 C   0  0  2  0  0  0  0  0  0  0  0  0
    4.1341    4.0825    9.4682 C   0  0  1  0  0  0  0  0  0  0  0  0
    5.2030    4.5960   10.4394 C   0  0  2  0  0  0  0  0  0  0  0  0
    6.2800    3.8386   10.9849 C   0  0  1  0  0  0  0  0  0  0  0  0
    6.6813    2.5695    9.9418 C   0  0  1  0  0  0  0  0  0  0  0  0
    6.9651    1.5123   10.5965 C   0  0  0  0  0  0  0  0  0  0  0  0
    4.8560    0.9130    3.6825 C   0  0  1  0  0  0  0  0  0  0  0  0
    5.5740    1.9960    4.4167 C   0  0  2  0  0  0  0  0  0  0  0  0
    5.2779    2.9886    5.6137 C   0  0  1  0  0  0  0  0  0  0  0  0
    4.5570    2.1333    6.5069 C   0  0  1  0  0  0  0  0  0  0  0  0
    3.7791    0.8414    6.1273 C   0  0  1  0  0  0  0  0  0  0  0  0
    4.0856    0.4807    4.7665 C   0  0  0  0  0  0  0  0  0  0  0  0
    7.2352    3.0342    3.3250 C   0  0  1  0  0  0  0  0  0  0  0  0
    7.0319    4.5941    3.0404 C   0  0  2  0  0  0  0  0  0  0  0  0
    8.1587    5.1959    2.7438 C   0  0  1  0  0  0  0  0  0  0  0  0
    9.1854    4.7217    2.0186 C   0  0  2  0  0  0  0  0  0  0  0  0
    9.0430    3.0440    2.4375 C   0  0  2  0  0  0  0  0  0  0  0  0
   10.5216    2.1212    1.5309 C   0  0  0  0  0  0  0  0  0  0  0  0
    6.9484    0.4551   10.8347 N   0  0  0  0  0  0  0  0  0  0  0  0
    3.0993    0.4929    7.4487 N   0  0  0  0  0  0  0  0  0  0  0  0
    5.4113    0.9060    2.0567 N   0  0  0  0  0  0  0  0  0  0  0  0
    7.5721    6.6495    2.5656 N   0  0  0  0  0  0  0  0  0  0  0  0
    5.8275    1.9444    9.3253 O   0  0  0  0  0  0  0  0  0  0  0  0
    4.6096    5.9221   11.1228 O   0  0  0  0  0  0  0  0  0  0  0  0
    7.1006    4.0372   11.6220 O   0  0  0  0  0  0  0  0  0  0  0  0
    4.7830    2.6444    7.6912 O   0  0  0  0  0  0  0  0  0  0  0  0
    6.1152    3.9675    6.1054 O   0  0  0  0  0  0  0  0  0  0  0  0
    6.3912    2.5954    3.9121 O   0  0  0  0  0  0  0  0  0  0  0  0
    8.1216    2.1326    2.8929 O   0  0  0  0  0  0  0  0  0  0  0  0
    5.4627    5.1397    3.9221 O   0  0  0  0  0  0  0  0  0  0  0  0
    9.8243    5.4714    1.4117 O   0  0  0  0  0  0  0  0  0  0  0  0
   10.3402    1.0353    1.1421 O   0  0  0  0  0  0  0  0  0  0  0  0
    2.8025    4.4778    8.4255 N   0  0  0  0  0  0  0  0  0  0  0  0
  1  2  1  0
  1 23  1  0
  1 26  1  6
  2  3  1  0
  2 33  1  6
  3  4  1  0
  3 24  1  1
  5  4  1  0
  4 25  1  6
  5  6  1  1
 23  5  1  0
  6 19  1  0
  8  7  1  0
  7 12  1  0
  7 21  1  6
  8  9  1  0
  8 28  1  1
  9 10  1  0
  9 27  1  6
 10 11  1  0
 10 26  1  1
 12 11  1  0
 11 20  1  6
 13 14  1  0
 13 28  1  6
 13 29  1  0
 14 15  1  0
 14 30  1  6
 15 16  1  0
 15 22  1  1
 16 17  1  0
 16 31  1  6
 17 18  1  1
 17 29  1  0
 18 32  1  0
M  CHG  5  19   1  20   1  21   1  22   1  33   1
M  END
$$$$
6np5_ligand
     RDKit          3D

 33 35  0  0  0  0  0  0  0  0999 V2000
    4.4243    3.1024    8.7664 C   0  0  2  0  0  0  0  0  0  0  0  0
    3.7166    4.2308    9.4566 C   0  0  1  0  0  0  0  0  0  0  0  0
    4.9778    4.7386   10.2559 C   0  0  2  0  0  0  0  0  0  0  0  0
    6.1653    3.9549   10.7971 C   0  0  1  0  0  0  0  0  0  0  0  0
    6.5933    2.8212    9.7743 C   0  0  1  0  0  0  0  0  0  0  0  0
    7.3361    1.6176   10.0274 C   0  0  0  0  0  0  0  0  0  0  0  0
    4.3968    1.3429    3.6125 C   0  0  1  0  0  0  0  0  0  0  0  0
    5.2101    2.2829    4.2198 C   0  0  2  0  0  0  0  0  0  0  0  0
    5.4109    2.9695    5.4090 C   0  0  2  0  0  0  0  0  0  0  0  0
    4.1376    2.3871    6.3170 C   0  0  1  0  0  0  0  0  0  0  0  0
    3.1148    1.2063    5.8241 C   0  0  1  0  0  0  0  0  0  0  0  0
    3.3558    0.8685    4.4630 C   0  0  0  0  0  0  0  0  0  0  0  0
    7.0190    3.2929    2.7170 C   0  0  2  0  0  0  0  0  0  0  0  0
    6.9239    5.1586    2.6631 C   0  0  2  0  0  0  0  0  0  0  0  0
    7.6957    5.5512    2.3170 C   0  0  1  0  0  0  0  0  0  0  0  0
    9.1224    5.0052    1.2238 C   0  0  1  0  0  0  0  0  0  0  0  0
    8.8318    3.2709    1.7354 C   0  0  2  0  0  0  0  0  0  0  0  0
   10.0381    2.4196    0.9180 C   0  0  0  0  0  0  0  0  0  0  0  0
    7.9643    0.4836   10.1697 N   0  0  0  0  0  0  0  0  0  0  0  0
    2.3600    0.8677    6.9719 N   0  0  0  0  0  0  0  0  0  0  0  0
    4.9253    1.1667    1.9547 N   0  0  0  0  0  0  0  0  0  0  0  0
    7.2679    7.2673    2.0206 N   0  0  0  0  0  0  0  0  0  0  0  0
    5.6555    2.1574    9.2348 O   0  0  0  0  0  0  0  0  0  0  0  0
    4.2209    5.9225   10.9628 O   0  0  0  0  0  0  0  0  0  0  0  0
    6.9277    4.1310   11.5705 O   0  0  0  0  0  0  0  0  0  0  0  0
    4.3953    2.9408    7.5345 O   0  0  0  0  0  0  0  0  0  0  0  0
    6.4813    3.9668    5.7635 O   0  0  0  0  0  0  0  0  0  0  0  0
    5.9965    2.8408    3.5522 O   0  0  0  0  0  0  0  0  0  0  0  0
    7.8262    2.3695    2.2100 O   0  0  0  0  0  0  0  0  0  0  0  0
    5.6516    5.8358    3.8922 O   0  0  0  0  0  0  0  0  0  0  0  0
    9.6826    5.5888    0.4641 O   0  0  0  0  0  0  0  0  0  0  0  0
    9.8655    1.4014    0.7950 O   0  0  0  0  0  0  0  0  0  0  0  0
    2.2646    4.5086    8.2055 N   0  0  0  0  0  0  0  0  0  0  0  0
  1  2  1  0
  1 23  1  0
  1 26  1  6
  2  3  1  0
  2 33  1  6
  3  4  1  0
  3 24  1  1
  5  4  1  0
  4 25  1  6
  5  6  1  1
 23  5  1  0
  6 19  1  0
  8  7  1  0
  7 12  1  0
  7 21  1  6
  8  9  1  0
  8 28  1  1
  9 10  1  0
  9 27  1  6
 10 11  1  0
 10 26  1  1
 12 11  1  0
 11 20  1  6
 13 14  1  0
 13 28  1  6
 13 29  1  0
 14 15  1  0
 14 30  1  6
 15 16  1  0
 15 22  1  1
 16 17  1  0
 16 31  1  6
 17 18  1  1
 17 29  1  0
 18 32  1  0
M  CHG  5  19   1  20   1  21   1  22   1  33   1
M  END
$$$$
6np5_ligand
     RDKit          3D

 33 35  0  0  0  0  0  0  0  0999 V2000
    4.8845    3.7711    8.7372 C   0  0  2  0  0  0  0  0  0  0  0  0
    4.1280    4.9381    9.3437 C   0  0  1  0  0  0  0  0  0  0  0  0
    5.1612    5.7443   10.0814 C   0  0  2  0  0  0  0  0  0  0  0  0
    6.3952    5.0862   10.7166 C   0  0  1  0  0  0  0  0  0  0  0  0
    7.0566    3.8437    9.6746 C   0  0  1  0  0  0  0  0  0  0  0  0
    7.8871    3.0231   10.0819 C   0  0  0  0  0  0  0  0  0  0  0  0
    4.3224    1.1977    3.6906 C   0  0  2  0  0  0  0  0  0  0  0  0
    5.1359    2.5600    3.9842 C   0  0  2  0  0  0  0  0  0  0  0  0
    4.8540    3.4756    4.8511 C   0  0  1  0  0  0  0  0  0  0  0  0
    4.4648    2.6415    6.3036 C   0  0  2  0  0  0  0  0  0  0  0  0
    3.6471    1.3502    6.2297 C   0  0  1  0  0  0  0  0  0  0  0  0
    3.8668    0.7698    5.0166 C   0  0  0  0  0  0  0  0  0  0  0  0
    6.6761    3.4331    2.3808 C   0  0  2  0  0  0  0  0  0  0  0  0
    6.3753    5.2104    2.0309 C   0  0  2  0  0  0  0  0  0  0  0  0
    6.7382    5.8754    1.7047 C   0  0  1  0  0  0  0  0  0  0  0  0
    8.0972    5.2356    0.7101 C   0  0  2  0  0  0  0  0  0  0  0  0
    8.3528    3.4786    1.2729 C   0  0  2  0  0  0  0  0  0  0  0  0
    9.4681    2.6200    0.4770 C   0  0  0  0  0  0  0  0  0  0  0  0
    8.7119    2.3420   10.4056 N   0  0  0  0  0  0  0  0  0  0  0  0
    3.2311    1.1283    7.6900 N   0  0  0  0  0  0  0  0  0  0  0  0
    4.3669    0.8226    2.2322 N   0  0  0  0  0  0  0  0  0  0  0  0
    6.1525    7.1967    1.2670 N   0  0  0  0  0  0  0  0  0  0  0  0
    6.2219    3.0792    9.1249 O   0  0  0  0  0  0  0  0  0  0  0  0
    4.3531    6.6673   10.8178 O   0  0  0  0  0  0  0  0  0  0  0  0
    6.8361    5.6632   11.5845 O   0  0  0  0  0  0  0  0  0  0  0  0
    4.6887    3.4858    7.4834 O   0  0  0  0  0  0  0  0  0  0  0  0
    5.5788    4.7162    5.0055 O   0  0  0  0  0  0  0  0  0  0  0  0
    5.8931    3.0744    3.1996 O   0  0  0  0  0  0  0  0  0  0  0  0
    7.6357    2.5619    2.0712 O   0  0  0  0  0  0  0  0  0  0  0  0
    5.0588    5.9357    2.8374 O   0  0  0  0  0  0  0  0  0  0  0  0
    8.4778    6.3174    0.0294 O   0  0  0  0  0  0  0  0  0  0  0  0
    9.8363    1.9003    0.4995 O   0  0  0  0  0  0  0  0  0  0  0  0
    2.6372    4.9117    8.1836 N   0  0  0  0  0  0  0  0  0  0  0  0
  1  2  1  0
  1 23  1  0
  1 26  1  6
  2  3  1  0
  2 33  1  6
  3  4  1  0
  3 24  1  1
  5  4  1  0
  4 25  1  6
  5  6  1  1
 23  5  1  0
  6 19  1  0
  8  7  1  0
  7 12  1  0
  7 21  1  6
  8  9  1  0
  8 28  1  1
  9 10  1  0
  9 27  1  6
 10 11  1  0
 10 26  1  6
 12 11  1  0
 11 20  1  6
 13 14  1  0
 13 28  1  6
 13 29  1  0
 14 15  1  0
 14 30  1  6
 15 16  1  0
 15 22  1  1
 16 17  1  0
 16 31  1  6
 17 18  1  1
 17 29  1  0
 18 32  1  0
M  CHG  5  19   1  20   1  21   1  22   1  33   1
M  END
$$$$
6np5_ligand
     RDKit          3D

 33 35  0  0  0  0  0  0  0  0999 V2000
    5.3689    3.6639    8.9687 C   0  0  2  0  0  0  0  0  0  0  0  0
    4.4999    4.5612    9.6644 C   0  0  1  0  0  0  0  0  0  0  0  0
    5.4528    5.2785   10.6703 C   0  0  2  0  0  0  0  0  0  0  0  0
    6.6236    4.6467   11.2940 C   0  0  1  0  0  0  0  0  0  0  0  0
    7.3031    3.8127   10.0297 C   0  0  1  0  0  0  0  0  0  0  0  0
    8.4434    3.2215   10.1735 C   0  0  0  0  0  0  0  0  0  0  0  0
    4.8062    1.1932    3.5187 C   0  0  1  0  0  0  0  0  0  0  0  0
    5.4482    2.3280    3.9973 C   0  0  1  0  0  0  0  0  0  0  0  0
    5.7160    3.4510    5.1988 C   0  0  1  0  0  0  0  0  0  0  0  0
    4.9116    2.6575    6.3091 C   0  0  2  0  0  0  0  0  0  0  0  0
    4.0085    1.4017    6.0866 C   0  0  1  0  0  0  0  0  0  0  0  0
    4.0614    0.9141    4.7076 C   0  0  0  0  0  0  0  0  0  0  0  0
    7.2412    3.3232    2.2530 C   0  0  2  0  0  0  0  0  0  0  0  0
    7.0098    5.0097    1.8088 C   0  0  1  0  0  0  0  0  0  0  0  0
    7.1144    5.6286    1.5992 C   0  0  1  0  0  0  0  0  0  0  0  0
    9.0122    5.2832    0.8887 C   0  0  1  0  0  0  0  0  0  0  0  0
    9.0728    3.5143    1.3753 C   0  0  2  0  0  0  0  0  0  0  0  0
   10.3500    3.1781    0.3519 C   0  0  0  0  0  0  0  0  0  0  0  0
    9.2835    2.5409   10.4655 N   0  0  0  0  0  0  0  0  0  0  0  0
    3.7519    1.2163    7.7192 N   0  0  0  0  0  0  0  0  0  0  0  0
    4.9215    0.9439    1.8543 N   0  0  0  0  0  0  0  0  0  0  0  0
    6.3690    7.0413    1.3762 N   0  0  0  0  0  0  0  0  0  0  0  0
    6.7029    3.2413    9.1865 O   0  0  0  0  0  0  0  0  0  0  0  0
    4.3811    6.0018   11.5470 O   0  0  0  0  0  0  0  0  0  0  0  0
    6.8326    4.8955   12.3027 O   0  0  0  0  0  0  0  0  0  0  0  0
    5.1388    3.4626    7.5627 O   0  0  0  0  0  0  0  0  0  0  0  0
    6.5898    4.5719    5.1162 O   0  0  0  0  0  0  0  0  0  0  0  0
    6.5768    2.8471    3.3091 O   0  0  0  0  0  0  0  0  0  0  0  0
    8.3102    2.7433    1.9817 O   0  0  0  0  0  0  0  0  0  0  0  0
    4.8540    5.0403    2.2095 O   0  0  0  0  0  0  0  0  0  0  0  0
    9.5831    5.8500    0.1241 O   0  0  0  0  0  0  0  0  0  0  0  0
   10.6565    2.2162    0.4144 O   0  0  0  0  0  0  0  0  0  0  0  0
    3.1424    4.9461    8.6897 N   0  0  0  0  0  0  0  0  0  0  0  0
  1  2  1  0
  1 23  1  0
  1 26  1  6
  2  3  1  0
  2 33  1  6
  3  4  1  0
  3 24  1  1
  5  4  1  0
  4 25  1  6
  5  6  1  1
 23  5  1  0
  6 19  1  0
  8  7  1  0
  7 12  1  0
  7 21  1  6
  8  9  1  0
  8 28  1  1
  9 10  1  0
  9 27  1  6
 10 11  1  0
 10 26  1  1
 12 11  1  0
 11 20  1  6
 13 14  1  0
 13 28  1  6
 13 29  1  0
 14 15  1  0
 14 30  1  6
 15 16  1  0
 15 22  1  1
 16 17  1  0
 16 31  1  6
 17 18  1  1
 17 29  1  0
 18 32  1  0
M  CHG  5  19   1  20   1  21   1  22   1  33   1
M  END
$$$$
6np5_ligand
     RDKit          3D

 33 35  0  0  0  0  0  0  0  0999 V2000
    5.7202    3.5090    8.4276 C   0  0  2  0  0  0  0  0  0  0  0  0
    5.1841    4.5034    9.3056 C   0  0  1  0  0  0  0  0  0  0  0  0
    6.3368    5.2784    9.9108 C   0  0  2  0  0  0  0  0  0  0  0  0
    7.5799    4.6554   10.3675 C   0  0  1  0  0  0  0  0  0  0  0  0
    7.9034    3.6777    9.1412 C   0  0  1  0  0  0  0  0  0  0  0  0
    9.0640    2.8858    9.1348 C   0  0  0  0  0  0  0  0  0  0  0  0
    4.6839    1.3228    3.3482 C   0  0  2  0  0  0  0  0  0  0  0  0
    5.5803    2.4988    3.8690 C   0  0  2  0  0  0  0  0  0  0  0  0
    5.2649    3.7773    5.1296 C   0  0  1  0  0  0  0  0  0  0  0  0
    4.9893    2.7855    5.9635 C   0  0  2  0  0  0  0  0  0  0  0  0
    4.0229    1.5080    5.8084 C   0  0  1  0  0  0  0  0  0  0  0  0
    4.1212    0.9471    4.5253 C   0  0  0  0  0  0  0  0  0  0  0  0
    7.3433    3.6707    2.3275 C   0  0  1  0  0  0  0  0  0  0  0  0
    6.9383    5.3376    1.8427 C   0  0  1  0  0  0  0  0  0  0  0  0
    7.5557    5.6954    1.2065 C   0  0  2  0  0  0  0  0  0  0  0  0
    9.0275    5.4479    0.7142 C   0  0  1  0  0  0  0  0  0  0  0  0
    9.1988    3.6049    1.4087 C   0  0  1  0  0  0  0  0  0  0  0  0
   10.9234    2.9226    0.7677 C   0  0  0  0  0  0  0  0  0  0  0  0
   10.1032    1.8755    8.9365 N   0  0  0  0  0  0  0  0  0  0  0  0
    3.4985    1.3750    7.3065 N   0  0  0  0  0  0  0  0  0  0  0  0
    4.8305    0.9499    1.8800 N   0  0  0  0  0  0  0  0  0  0  0  0
    6.6986    7.3380    0.7132 N   0  0  0  0  0  0  0  0  0  0  0  0
    6.9884    3.0672    8.5680 O   0  0  0  0  0  0  0  0  0  0  0  0
    5.8818    6.2962   10.9575 O   0  0  0  0  0  0  0  0  0  0  0  0
    8.0918    5.0031   11.3682 O   0  0  0  0  0  0  0  0  0  0  0  0
    5.3099    3.4981    7.1592 O   0  0  0  0  0  0  0  0  0  0  0  0
    5.6508    5.0526    5.1285 O   0  0  0  0  0  0  0  0  0  0  0  0
    6.3058    3.2659    2.8417 O   0  0  0  0  0  0  0  0  0  0  0  0
    8.5641    2.8354    2.1606 O   0  0  0  0  0  0  0  0  0  0  0  0
    5.1303    5.7059    2.7862 O   0  0  0  0  0  0  0  0  0  0  0  0
    9.5465    5.7043   -0.3069 O   0  0  0  0  0  0  0  0  0  0  0  0
   11.0783    1.8329    1.3088 O   0  0  0  0  0  0  0  0  0  0  0  0
    3.6725    5.0283    8.4474 N   0  0  0  0  0  0  0  0  0  0  0  0
  1  2  1  0
  1 23  1  0
  1 26  1  6
  2  3  1  0
  2 33  1  6
  3  4  1  0
  3 24  1  1
  5  4  1  0
  4 25  1  6
  5  6  1  1
 23  5  1  0
  6 19  1  0
  8  7  1  0
  7 12  1  0
  7 21  1  6
  8  9  1  0
  8 28  1  1
  9 10  1  0
  9 27  1  6
 10 11  1  0
 10 26  1  6
 12 11  1  0
 11 20  1  6
 13 14  1  0
 13 28  1  6
 13 29  1  0
 14 15  1  0
 14 30  1  6
 15 16  1  0
 15 22  1  1
 16 17  1  0
 16 31  1  6
 17 18  1  1
 17 29  1  0
 18 32  1  0
M  CHG  5  19   1  20   1  21   1  22   1  33   1
M  END
$$$$
6np5_ligand
     RDKit          3D

 33 35  0  0  0  0  0  0  0  0999 V2000
    5.7610    3.2148    8.5344 C   0  0  2  0  0  0  0  0  0  0  0  0
    5.2145    4.2148    9.4134 C   0  0  1  0  0  0  0  0  0  0  0  0
    6.5497    4.9467   10.0259 C   0  0  2  0  0  0  0  0  0  0  0  0
    7.6174    4.2595   10.4585 C   0  0  1  0  0  0  0  0  0  0  0  0
    7.7885    3.2012    9.3082 C   0  0  1  0  0  0  0  0  0  0  0  0
    9.0182    2.5458    9.0139 C   0  0  0  0  0  0  0  0  0  0  0  0
    4.7656    1.1336    3.3461 C   0  0  2  0  0  0  0  0  0  0  0  0
    5.5695    2.3364    3.8178 C   0  0  2  0  0  0  0  0  0  0  0  0
    5.4522    3.3249    5.1248 C   0  0  1  0  0  0  0  0  0  0  0  0
    4.7782    2.5153    6.0330 C   0  0  1  0  0  0  0  0  0  0  0  0
    4.1178    1.1882    5.7905 C   0  0  2  0  0  0  0  0  0  0  0  0
    4.1309    0.6833    4.4557 C   0  0  0  0  0  0  0  0  0  0  0  0
    7.0352    3.7143    2.4573 C   0  0  1  0  0  0  0  0  0  0  0  0
    6.6599    5.0458    1.9034 C   0  0  1  0  0  0  0  0  0  0  0  0
    7.3039    5.4173    0.9218 C   0  0  2  0  0  0  0  0  0  0  0  0
    8.5805    5.1954    0.8075 C   0  0  1  0  0  0  0  0  0  0  0  0
    8.7554    3.7489    1.4306 C   0  0  1  0  0  0  0  0  0  0  0  0
   10.5291    3.0346    0.9652 C   0  0  0  0  0  0  0  0  0  0  0  0
    9.9812    1.2367    8.3785 N   0  0  0  0  0  0  0  0  0  0  0  0
    3.2276    1.2226    7.0443 N   0  0  0  0  0  0  0  0  0  0  0  0
    5.2178    0.6678    1.8452 N   0  0  0  0  0  0  0  0  0  0  0  0
    6.5936    6.8528    0.4229 N   0  0  0  0  0  0  0  0  0  0  0  0
    6.9996    2.7884    8.5690 O   0  0  0  0  0  0  0  0  0  0  0  0
    5.9854    6.0072   11.1330 O   0  0  0  0  0  0  0  0  0  0  0  0
    8.4142    4.6660   11.2934 O   0  0  0  0  0  0  0  0  0  0  0  0
    5.3011    3.1432    7.2432 O   0  0  0  0  0  0  0  0  0  0  0  0
    6.0689    4.5660    5.1805 O   0  0  0  0  0  0  0  0  0  0  0  0
    6.1575    3.2736    2.9710 O   0  0  0  0  0  0  0  0  0  0  0  0
    8.2627    3.1540    2.3299 O   0  0  0  0  0  0  0  0  0  0  0  0
    4.8140    5.3604    2.8043 O   0  0  0  0  0  0  0  0  0  0  0  0
    8.9877    5.4422   -0.3134 O   0  0  0  0  0  0  0  0  0  0  0  0
   10.8129    1.8444    1.6421 O   0  0  0  0  0  0  0  0  0  0  0  0
    3.7820    4.9131    8.7190 N   0  0  0  0  0  0  0  0  0  0  0  0
  1  2  1  0
  1 23  1  0
  1 26  1  6
  2  3  1  0
  2 33  1  6
  3  4  1  0
  3 24  1  1
  5  4  1  0
  4 25  1  6
  5  6  1  1
 23  5  1  0
  6 19  1  0
  8  7  1  0
  7 12  1  0
  7 21  1  6
  8  9  1  0
  8 28  1  1
  9 10  1  0
  9 27  1  6
 10 11  1  0
 10 26  1  1
 12 11  1  0
 11 20  1  6
 13 14  1  0
 13 28  1  6
 13 29  1  0
 14 15  1  0
 14 30  1  6
 15 16  1  0
 15 22  1  1
 16 17  1  0
 16 31  1  6
 17 18  1  1
 17 29  1  0
 18 32  1  0
M  CHG  5  19   1  20   1  21   1  22   1  33   1
M  END
$$$$
6np5_ligand
     RDKit          3D

 33 35  0  0  0  0  0  0  0  0999 V2000
    5.6260    3.0779    8.7514 C   0  0  2  0  0  0  0  0  0  0  0  0
    5.1617    3.9031    9.7432 C   0  0  1  0  0  0  0  0  0  0  0  0
    6.3403    4.7561   10.2559 C   0  0  2  0  0  0  0  0  0  0  0  0
    7.4672    4.0237   10.7277 C   0  0  1  0  0  0  0  0  0  0  0  0
    7.8415    3.2480    9.3349 C   0  0  1  0  0  0  0  0  0  0  0  0
    8.8000    2.7355    9.5256 C   0  0  0  0  0  0  0  0  0  0  0  0
    4.9346    1.1367    3.4948 C   0  0  1  0  0  0  0  0  0  0  0  0
    5.4536    2.5010    3.8173 C   0  0  1  0  0  0  0  0  0  0  0  0
    5.1945    3.2409    5.2603 C   0  0  1  0  0  0  0  0  0  0  0  0
    4.6860    2.6010    6.1482 C   0  0  1  0  0  0  0  0  0  0  0  0
    4.0102    1.2737    5.8549 C   0  0  2  0  0  0  0  0  0  0  0  0
    4.0842    0.8935    4.5462 C   0  0  0  0  0  0  0  0  0  0  0  0
    7.4742    3.6979    2.6256 C   0  0  1  0  0  0  0  0  0  0  0  0
    7.2157    5.1236    2.1436 C   0  0  1  0  0  0  0  0  0  0  0  0
    8.1626    5.4673    1.1696 C   0  0  2  0  0  0  0  0  0  0  0  0
    9.3432    5.1097    1.0275 C   0  0  1  0  0  0  0  0  0  0  0  0
    9.4285    3.5681    1.6484 C   0  0  1  0  0  0  0  0  0  0  0  0
   10.9756    2.5438    1.3169 C   0  0  0  0  0  0  0  0  0  0  0  0
    9.8040    1.5822    8.7545 N   0  0  0  0  0  0  0  0  0  0  0  0
    2.8645    1.2795    6.9517 N   0  0  0  0  0  0  0  0  0  0  0  0
    5.2309    0.8643    1.9163 N   0  0  0  0  0  0  0  0  0  0  0  0
    7.5662    7.0288    0.6944 N   0  0  0  0  0  0  0  0  0  0  0  0
    6.8724    2.6732    8.8866 O   0  0  0  0  0  0  0  0  0  0  0  0
    5.7624    5.7335   11.4201 O   0  0  0  0  0  0  0  0  0  0  0  0
    8.4041    4.4724   11.4414 O   0  0  0  0  0  0  0  0  0  0  0  0
    5.2193    3.0723    7.5419 O   0  0  0  0  0  0  0  0  0  0  0  0
    5.8968    4.4214    5.5933 O   0  0  0  0  0  0  0  0  0  0  0  0
    6.4776    3.0952    3.2056 O   0  0  0  0  0  0  0  0  0  0  0  0
    8.7022    2.9142    2.4866 O   0  0  0  0  0  0  0  0  0  0  0  0
    5.5144    5.5306    2.5575 O   0  0  0  0  0  0  0  0  0  0  0  0
    9.8962    5.2475   -0.1014 O   0  0  0  0  0  0  0  0  0  0  0  0
   11.1538    1.5903    2.0870 O   0  0  0  0  0  0  0  0  0  0  0  0
    3.5489    4.3849    9.1086 N   0  0  0  0  0  0  0  0  0  0  0  0
  1  2  1  0
  1 23  1  0
  1 26  1  6
  2  3  1  0
  2 33  1  6
  3  4  1  0
  3 24  1  1
  5  4  1  0
  4 25  1  6
  5  6  1  1
 23  5  1  0
  6 19  1  0
  8  7  1  0
  7 12  1  0
  7 21  1  6
  8  9  1  0
  8 28  1  1
  9 10  1  0
  9 27  1  6
 10 11  1  0
 10 26  1  1
 12 11  1  0
 11 20  1  6
 13 14  1  0
 13 28  1  6
 13 29  1  0
 14 15  1  0
 14 30  1  6
 15 16  1  0
 15 22  1  1
 16 17  1  0
 16 31  1  6
 17 18  1  1
 17 29  1  0
 18 32  1  0
M  CHG  5  19   1  20   1  21   1  22   1  33   1
M  END
$$$$
6np5_ligand
     RDKit          3D

 33 35  0  0  0  0  0  0  0  0999 V2000
    6.0704    3.1640    8.6956 C   0  0  2  0  0  0  0  0  0  0  0  0
    5.6077    4.0390    9.6572 C   0  0  1  0  0  0  0  0  0  0  0  0
    6.8117    5.0930    9.8150 C   0  0  2  0  0  0  0  0  0  0  0  0
    7.9249    4.2957   10.3871 C   0  0  1  0  0  0  0  0  0  0  0  0
    8.1637    3.5622    9.0351 C   0  0  1  0  0  0  0  0  0  0  0  0
    9.3465    3.0229    9.1943 C   0  0  0  0  0  0  0  0  0  0  0  0
    5.1170    1.0449    3.5609 C   0  0  1  0  0  0  0  0  0  0  0  0
    5.5450    2.4766    3.8107 C   0  0  1  0  0  0  0  0  0  0  0  0
    5.6955    3.1273    4.9415 C   0  0  2  0  0  0  0  0  0  0  0  0
    4.9133    2.5958    6.1442 C   0  0  1  0  0  0  0  0  0  0  0  0
    4.3332    1.2641    6.0333 C   0  0  2  0  0  0  0  0  0  0  0  0
    4.2293    0.9045    4.6285 C   0  0  0  0  0  0  0  0  0  0  0  0
    7.4821    3.5075    2.4672 C   0  0  1  0  0  0  0  0  0  0  0  0
    7.2793    4.9014    1.9318 C   0  0  1  0  0  0  0  0  0  0  0  0
    8.3762    5.0562    1.0487 C   0  0  2  0  0  0  0  0  0  0  0  0
    9.5515    4.5706    0.9162 C   0  0  1  0  0  0  0  0  0  0  0  0
    9.4294    3.0377    1.5423 C   0  0  1  0  0  0  0  0  0  0  0  0
   10.7555    1.6527    1.3722 C   0  0  0  0  0  0  0  0  0  0  0  0
   10.1826    1.5141    8.5581 N   0  0  0  0  0  0  0  0  0  0  0  0
    3.1916    1.3381    7.1647 N   0  0  0  0  0  0  0  0  0  0  0  0
    5.3569    0.5523    2.0364 N   0  0  0  0  0  0  0  0  0  0  0  0
    7.9089    6.7768    0.4471 N   0  0  0  0  0  0  0  0  0  0  0  0
    7.3876    2.7190    8.8146 O   0  0  0  0  0  0  0  0  0  0  0  0
    6.4180    6.0504   11.0175 O   0  0  0  0  0  0  0  0  0  0  0  0
    9.0262    5.1395   10.5338 O   0  0  0  0  0  0  0  0  0  0  0  0
    5.5525    3.0056    7.5215 O   0  0  0  0  0  0  0  0  0  0  0  0
    6.3718    4.4342    5.3108 O   0  0  0  0  0  0  0  0  0  0  0  0
    6.5816    3.0140    3.0896 O   0  0  0  0  0  0  0  0  0  0  0  0
    8.6928    2.5739    2.2262 O   0  0  0  0  0  0  0  0  0  0  0  0
    5.7043    5.4452    2.1505 O   0  0  0  0  0  0  0  0  0  0  0  0
   10.1693    4.5016   -0.2003 O   0  0  0  0  0  0  0  0  0  0  0  0
   10.5954    0.6489    2.0117 O   0  0  0  0  0  0  0  0  0  0  0  0
    3.9064    4.3162    9.3238 N   0  0  0  0  0  0  0  0  0  0  0  0
  1  2  1  0
  1 23  1  0
  1 26  1  6
  2  3  1  0
  2 33  1  6
  3  4  1  0
  3 24  1  1
  5  4  1  0
  4 25  1  6
  5  6  1  1
 23  5  1  0
  6 19  1  0
  8  7  1  0
  7 12  1  0
  7 21  1  6
  8  9  1  0
  8 28  1  1
  9 10  1  0
  9 27  1  6
 10 11  1  0
 10 26  1  1
 12 11  1  0
 11 20  1  6
 13 14  1  0
 13 28  1  6
 13 29  1  0
 14 15  1  0
 14 30  1  6
 15 16  1  0
 15 22  1  1
 16 17  1  0
 16 31  1  6
 17 18  1  1
 17 29  1  0
 18 32  1  0
M  CHG  5  19   1  20   1  21   1  22   1  33   1
M  END
$$$$
6np5_ligand
     RDKit          3D

 33 35  0  0  0  0  0  0  0  0999 V2000
    6.2498    3.1433    8.5969 C   0  0  2  0  0  0  0  0  0  0  0  0
    5.8796    4.0608    9.6157 C   0  0  1  0  0  0  0  0  0  0  0  0
    7.0187    5.1253    9.6942 C   0  0  2  0  0  0  0  0  0  0  0  0
    8.3752    4.3669   10.0371 C   0  0  1  0  0  0  0  0  0  0  0  0
    8.3903    3.6026    8.6978 C   0  0  1  0  0  0  0  0  0  0  0  0
    9.6926    3.0554    8.5520 C   0  0  0  0  0  0  0  0  0  0  0  0
    4.6764    0.9739    3.7592 C   0  0  1  0  0  0  0  0  0  0  0  0
    5.2415    2.3943    3.8683 C   0  0  1  0  0  0  0  0  0  0  0  0
    5.6188    3.1655    5.2062 C   0  0  2  0  0  0  0  0  0  0  0  0
    4.8409    2.6008    6.2083 C   0  0  1  0  0  0  0  0  0  0  0  0
    4.1612    1.2462    6.1584 C   0  0  2  0  0  0  0  0  0  0  0  0
    3.8438    0.8954    4.7534 C   0  0  0  0  0  0  0  0  0  0  0  0
    7.3382    3.3764    2.5537 C   0  0  1  0  0  0  0  0  0  0  0  0
    7.2316    4.7380    1.9035 C   0  0  1  0  0  0  0  0  0  0  0  0
    8.1499    4.8497    0.8718 C   0  0  2  0  0  0  0  0  0  0  0  0
    9.4754    4.4002    0.8543 C   0  0  1  0  0  0  0  0  0  0  0  0
    9.2524    2.8650    1.4475 C   0  0  1  0  0  0  0  0  0  0  0  0
   10.8004    1.7940    1.4228 C   0  0  0  0  0  0  0  0  0  0  0  0
   10.4201    1.8258    8.1227 N   0  0  0  0  0  0  0  0  0  0  0  0
    3.2252    1.2961    7.4085 N   0  0  0  0  0  0  0  0  0  0  0  0
    4.4188    0.3496    2.3222 N   0  0  0  0  0  0  0  0  0  0  0  0
    7.8668    6.5204    0.1647 N   0  0  0  0  0  0  0  0  0  0  0  0
    7.6434    2.7265    8.3927 O   0  0  0  0  0  0  0  0  0  0  0  0
    6.6762    5.9945   10.9067 O   0  0  0  0  0  0  0  0  0  0  0  0
    9.3662    5.3054   10.1171 O   0  0  0  0  0  0  0  0  0  0  0  0
    5.5102    2.8735    7.5413 O   0  0  0  0  0  0  0  0  0  0  0  0
    6.3631    4.4116    5.3956 O   0  0  0  0  0  0  0  0  0  0  0  0
    6.4076    2.8075    3.0799 O   0  0  0  0  0  0  0  0  0  0  0  0
    8.5914    2.5193    2.3535 O   0  0  0  0  0  0  0  0  0  0  0  0
    5.5575    5.2848    2.0823 O   0  0  0  0  0  0  0  0  0  0  0  0
   10.0866    4.3702   -0.3070 O   0  0  0  0  0  0  0  0  0  0  0  0
   10.7478    0.7216    2.0532 O   0  0  0  0  0  0  0  0  0  0  0  0
    4.2643    4.2891    9.5998 N   0  0  0  0  0  0  0  0  0  0  0  0
  1  2  1  0
  1 23  1  0
  1 26  1  6
  2  3  1  0
  2 33  1  6
  3  4  1  0
  3 24  1  1
  5  4  1  0
  4 25  1  6
  5  6  1  1
 23  5  1  0
  6 19  1  0
  8  7  1  0
  7 12  1  0
  7 21  1  6
  8  9  1  0
  8 28  1  6
  9 10  1  0
  9 27  1  6
 10 11  1  0
 10 26  1  1
 12 11  1  0
 11 20  1  1
 13 14  1  0
 13 28  1  6
 13 29  1  0
 14 15  1  0
 14 30  1  6
 15 16  1  0
 15 22  1  1
 16 17  1  0
 16 31  1  6
 17 18  1  1
 17 29  1  0
 18 32  1  0
M  CHG  5  19   1  20   1  21   1  22   1  33   1
M  END
$$$$
6np5_ligand
     RDKit          3D

 33 35  0  0  0  0  0  0  0  0999 V2000
    6.3974    2.6533    8.4143 C   0  0  2  0  0  0  0  0  0  0  0  0
    6.0412    3.5063    9.4524 C   0  0  1  0  0  0  0  0  0  0  0  0
    7.1156    4.5920    9.5281 C   0  0  2  0  0  0  0  0  0  0  0  0
    8.5941    3.7394    9.8773 C   0  0  1  0  0  0  0  0  0  0  0  0
    8.5904    3.0640    8.4828 C   0  0  1  0  0  0  0  0  0  0  0  0
    9.8448    2.4215    8.5832 C   0  0  0  0  0  0  0  0  0  0  0  0
    4.7623    1.0302    3.2959 C   0  0  1  0  0  0  0  0  0  0  0  0
    5.4343    2.3919    3.4441 C   0  0  1  0  0  0  0  0  0  0  0  0
    5.9555    2.6557    4.6611 C   0  0  2  0  0  0  0  0  0  0  0  0
    5.0801    2.3510    5.9535 C   0  0  1  0  0  0  0  0  0  0  0  0
    4.3327    1.0016    5.7943 C   0  0  2  0  0  0  0  0  0  0  0  0
    3.8616    1.0391    4.3400 C   0  0  0  0  0  0  0  0  0  0  0  0
    7.3020    3.1887    1.8431 C   0  0  1  0  0  0  0  0  0  0  0  0
    7.0293    4.3901    1.1353 C   0  0  1  0  0  0  0  0  0  0  0  0
    8.0634    4.2973   -0.0241 C   0  0  2  0  0  0  0  0  0  0  0  0
    9.3346    3.9219    0.1575 C   0  0  1  0  0  0  0  0  0  0  0  0
    9.0772    2.4697    0.7196 C   0  0  1  0  0  0  0  0  0  0  0  0
   10.5095    1.4481    0.9121 C   0  0  0  0  0  0  0  0  0  0  0  0
   10.4954    1.3189    7.9687 N   0  0  0  0  0  0  0  0  0  0  0  0
    3.4511    0.8117    7.0794 N   0  0  0  0  0  0  0  0  0  0  0  0
    4.1710    0.9386    1.7115 N   0  0  0  0  0  0  0  0  0  0  0  0
    7.5605    6.0992   -0.7676 N   0  0  0  0  0  0  0  0  0  0  0  0
    7.8041    2.1408    8.3578 O   0  0  0  0  0  0  0  0  0  0  0  0
    6.7900    5.4422   10.7898 O   0  0  0  0  0  0  0  0  0  0  0  0
    9.6695    4.6684    9.9242 O   0  0  0  0  0  0  0  0  0  0  0  0
    5.9154    2.4991    7.2728 O   0  0  0  0  0  0  0  0  0  0  0  0
    6.9276    3.7706    4.8716 O   0  0  0  0  0  0  0  0  0  0  0  0
    6.3186    2.4857    2.4198 O   0  0  0  0  0  0  0  0  0  0  0  0
    8.5441    2.3380    1.7624 O   0  0  0  0  0  0  0  0  0  0  0  0
    5.5111    4.6095    1.0752 O   0  0  0  0  0  0  0  0  0  0  0  0
   10.0520    3.5621   -0.9843 O   0  0  0  0  0  0  0  0  0  0  0  0
   10.4952    0.4494    1.7116 O   0  0  0  0  0  0  0  0  0  0  0  0
    4.4643    3.7607    9.4643 N   0  0  0  0  0  0  0  0  0  0  0  0
  1  2  1  0
  1 23  1  0
  1 26  1  6
  2  3  1  0
  2 33  1  6
  3  4  1  0
  3 24  1  1
  5  4  1  0
  4 25  1  6
  5  6  1  1
 23  5  1  0
  6 19  1  0
  8  7  1  0
  7 12  1  0
  7 21  1  6
  8  9  1  0
  8 28  1  6
  9 10  1  0
  9 27  1  6
 10 11  1  0
 10 26  1  1
 12 11  1  0
 11 20  1  1
 13 14  1  0
 13 28  1  6
 13 29  1  0
 14 15  1  0
 14 30  1  6
 15 16  1  0
 15 22  1  1
 16 17  1  0
 16 31  1  6
 17 18  1  1
 17 29  1  0
 18 32  1  0
M  CHG  5  19   1  20   1  21   1  22   1  33   1
M  END
$$$$
6np5_ligand
     RDKit          3D

 33 35  0  0  0  0  0  0  0  0999 V2000
    6.2873    2.7378    8.4216 C   0  0  2  0  0  0  0  0  0  0  0  0
    5.9312    3.5068    9.5168 C   0  0  1  0  0  0  0  0  0  0  0  0
    6.9583    4.5819    9.7206 C   0  0  2  0  0  0  0  0  0  0  0  0
    8.3075    3.6842   10.1330 C   0  0  1  0  0  0  0  0  0  0  0  0
    8.4422    3.1109    8.6196 C   0  0  1  0  0  0  0  0  0  0  0  0
    9.7891    2.4328    8.6880 C   0  0  0  0  0  0  0  0  0  0  0  0
    4.5847    1.2775    3.3301 C   0  0  1  0  0  0  0  0  0  0  0  0
    5.2930    2.5490    3.3903 C   0  0  1  0  0  0  0  0  0  0  0  0
    5.7790    2.5206    4.7174 C   0  0  2  0  0  0  0  0  0  0  0  0
    5.0653    2.5008    6.0312 C   0  0  1  0  0  0  0  0  0  0  0  0
    4.3389    1.1852    5.8509 C   0  0  2  0  0  0  0  0  0  0  0  0
    3.7662    1.2652    4.3610 C   0  0  0  0  0  0  0  0  0  0  0  0
    7.1567    3.3257    1.8889 C   0  0  1  0  0  0  0  0  0  0  0  0
    7.0040    4.5421    1.1488 C   0  0  1  0  0  0  0  0  0  0  0  0
    7.9422    4.3282   -0.0230 C   0  0  2  0  0  0  0  0  0  0  0  0
    9.3056    3.9287    0.2172 C   0  0  1  0  0  0  0  0  0  0  0  0
    8.9730    2.5421    0.8552 C   0  0  1  0  0  0  0  0  0  0  0  0
   10.4112    1.5354    1.0498 C   0  0  0  0  0  0  0  0  0  0  0  0
   10.3069    1.3628    7.9160 N   0  0  0  0  0  0  0  0  0  0  0  0
    3.6162    0.8369    7.1821 N   0  0  0  0  0  0  0  0  0  0  0  0
    3.7818    1.3291    1.8779 N   0  0  0  0  0  0  0  0  0  0  0  0
    7.6126    6.0069   -0.8195 N   0  0  0  0  0  0  0  0  0  0  0  0
    7.6708    2.2206    8.3845 O   0  0  0  0  0  0  0  0  0  0  0  0
    6.6219    5.2749   11.0571 O   0  0  0  0  0  0  0  0  0  0  0  0
    9.3357    4.5377   10.4349 O   0  0  0  0  0  0  0  0  0  0  0  0
    5.8781    2.7297    7.3231 O   0  0  0  0  0  0  0  0  0  0  0  0
    6.9575    3.6607    4.9332 O   0  0  0  0  0  0  0  0  0  0  0  0
    6.1697    2.5556    2.3790 O   0  0  0  0  0  0  0  0  0  0  0  0
    8.3812    2.4140    1.9339 O   0  0  0  0  0  0  0  0  0  0  0  0
    5.3710    4.8494    1.0190 O   0  0  0  0  0  0  0  0  0  0  0  0
    9.9932    3.6035   -0.8009 O   0  0  0  0  0  0  0  0  0  0  0  0
   10.2913    0.4622    1.8575 O   0  0  0  0  0  0  0  0  0  0  0  0
    4.3525    3.9252    9.3792 N   0  0  0  0  0  0  0  0  0  0  0  0
  1  2  1  0
  1 23  1  0
  1 26  1  6
  2  3  1  0
  2 33  1  6
  3  4  1  0
  3 24  1  1
  5  4  1  0
  4 25  1  6
  5  6  1  1
 23  5  1  0
  6 19  1  0
  8  7  1  0
  7 12  1  0
  7 21  1  6
  8  9  1  0
  8 28  1  6
  9 10  1  0
  9 27  1  1
 10 11  1  0
 10 26  1  1
 12 11  1  0
 11 20  1  1
 13 14  1  0
 13 28  1  6
 13 29  1  0
 14 15  1  0
 14 30  1  6
 15 16  1  0
 15 22  1  1
 16 17  1  0
 16 31  1  6
 17 18  1  1
 17 29  1  0
 18 32  1  0
M  CHG  5  19   1  20   1  21   1  22   1  33   1
M  END
$$$$
6np5_ligand
     RDKit          3D

 33 35  0  0  0  0  0  0  0  0999 V2000
    6.1704    2.7558    8.1738 C   0  0  2  0  0  0  0  0  0  0  0  0
    5.7324    3.4755    9.3496 C   0  0  1  0  0  0  0  0  0  0  0  0
    6.8384    4.4872    9.6885 C   0  0  2  0  0  0  0  0  0  0  0  0
    8.1516    3.7348    9.9761 C   0  0  1  0  0  0  0  0  0  0  0  0
    8.2907    3.2234    8.5268 C   0  0  1  0  0  0  0  0  0  0  0  0
    9.6520    2.6522    8.2795 C   0  0  0  0  0  0  0  0  0  0  0  0
    4.3630    1.3804    3.2053 C   0  0  1  0  0  0  0  0  0  0  0  0
    5.2534    2.5576    3.3090 C   0  0  1  0  0  0  0  0  0  0  0  0
    5.8354    2.5458    4.6913 C   0  0  2  0  0  0  0  0  0  0  0  0
    4.9208    2.5701    5.9035 C   0  0  1  0  0  0  0  0  0  0  0  0
    4.0242    1.3277    5.8018 C   0  0  2  0  0  0  0  0  0  0  0  0
    3.4506    1.5119    4.2196 C   0  0  0  0  0  0  0  0  0  0  0  0
    7.3598    3.2070    1.9904 C   0  0  1  0  0  0  0  0  0  0  0  0
    7.4116    4.3911    1.2853 C   0  0  1  0  0  0  0  0  0  0  0  0
    8.2691    4.1324    0.0602 C   0  0  2  0  0  0  0  0  0  0  0  0
    9.6260    3.6180    0.2979 C   0  0  1  0  0  0  0  0  0  0  0  0
    9.1538    2.2711    0.9296 C   0  0  1  0  0  0  0  0  0  0  0  0
   10.5311    1.2231    1.1403 C   0  0  0  0  0  0  0  0  0  0  0  0
   10.1681    1.6260    7.4395 N   0  0  0  0  0  0  0  0  0  0  0  0
    3.2782    1.1630    7.1313 N   0  0  0  0  0  0  0  0  0  0  0  0
    3.5060    1.5111    1.8575 N   0  0  0  0  0  0  0  0  0  0  0  0
    8.2629    5.8156   -0.7953 N   0  0  0  0  0  0  0  0  0  0  0  0
    7.5213    2.4262    8.0302 O   0  0  0  0  0  0  0  0  0  0  0  0
    6.4534    5.0683   11.1548 O   0  0  0  0  0  0  0  0  0  0  0  0
    9.0547    4.6582   10.3821 O   0  0  0  0  0  0  0  0  0  0  0  0
    5.6430    2.7803    7.1211 O   0  0  0  0  0  0  0  0  0  0  0  0
    7.0072    3.3695    4.8616 O   0  0  0  0  0  0  0  0  0  0  0  0
    6.1803    2.4770    2.3046 O   0  0  0  0  0  0  0  0  0  0  0  0
    8.5372    2.2247    1.9904 O   0  0  0  0  0  0  0  0  0  0  0  0
    5.9342    4.9809    1.1793 O   0  0  0  0  0  0  0  0  0  0  0  0
   10.1770    3.2964   -0.8021 O   0  0  0  0  0  0  0  0  0  0  0  0
   10.1684    0.1529    2.1128 O   0  0  0  0  0  0  0  0  0  0  0  0
    4.2482    3.8858    9.2442 N   0  0  0  0  0  0  0  0  0  0  0  0
  1  2  1  0
  1 23  1  0
  1 26  1  6
  2  3  1  0
  2 33  1  6
  3  4  1  0
  3 24  1  1
  5  4  1  0
  4 25  1  6
  5  6  1  1
 23  5  1  0
  6 19  1  0
  8  7  1  0
  7 12  1  0
  7 21  1  6
  8  9  1  0
  8 28  1  6
  9 10  1  0
  9 27  1  6
 10 11  1  0
 10 26  1  1
 12 11  1  0
 11 20  1  1
 13 14  1  0
 13 28  1  6
 13 29  1  0
 14 15  1  0
 14 30  1  6
 15 16  1  0
 15 22  1  1
 16 17  1  0
 16 31  1  6
 17 18  1  1
 17 29  1  0
 18 32  1  0
M  CHG  5  19   1  20   1  21   1  22   1  33   1
M  END
$$$$
6np5_ligand
     RDKit          3D

 33 35  0  0  0  0  0  0  0  0999 V2000
    6.2379    2.4178    7.7919 C   0  0  2  0  0  0  0  0  0  0  0  0
    5.8590    3.2285    8.9671 C   0  0  1  0  0  0  0  0  0  0  0  0
    7.0269    4.1734    9.2412 C   0  0  2  0  0  0  0  0  0  0  0  0
    8.3111    3.4795    9.4974 C   0  0  1  0  0  0  0  0  0  0  0  0
    8.4103    2.8666    8.0961 C   0  0  1  0  0  0  0  0  0  0  0  0
    9.8061    2.2622    7.9740 C   0  0  0  0  0  0  0  0  0  0  0  0
    4.6920    1.0395    2.8175 C   0  0  1  0  0  0  0  0  0  0  0  0
    5.3871    2.3458    3.0089 C   0  0  1  0  0  0  0  0  0  0  0  0
    5.6992    2.7004    4.1938 C   0  0  2  0  0  0  0  0  0  0  0  0
    4.9304    2.2547    5.5306 C   0  0  1  0  0  0  0  0  0  0  0  0
    4.2279    0.9143    5.3994 C   0  0  2  0  0  0  0  0  0  0  0  0
    3.7524    0.9743    3.8323 C   0  0  0  0  0  0  0  0  0  0  0  0
    7.6347    3.1420    1.8430 C   0  0  1  0  0  0  0  0  0  0  0  0
    7.7212    4.3867    1.1223 C   0  0  1  0  0  0  0  0  0  0  0  0
    8.3745    4.1674   -0.1895 C   0  0  2  0  0  0  0  0  0  0  0  0
    9.7872    3.5380   -0.1709 C   0  0  1  0  0  0  0  0  0  0  0  0
    9.3332    2.2207    0.5101 C   0  0  1  0  0  0  0  0  0  0  0  0
   10.6473    1.1754    0.6091 C   0  0  0  0  0  0  0  0  0  0  0  0
   10.3284    1.1661    7.3661 N   0  0  0  0  0  0  0  0  0  0  0  0
    3.3230    0.6720    6.6120 N   0  0  0  0  0  0  0  0  0  0  0  0
    3.8881    1.0721    1.3593 N   0  0  0  0  0  0  0  0  0  0  0  0
    8.4189    5.6488   -1.1477 N   0  0  0  0  0  0  0  0  0  0  0  0
    7.6070    2.0677    7.6359 O   0  0  0  0  0  0  0  0  0  0  0  0
    6.6229    4.8440   10.6661 O   0  0  0  0  0  0  0  0  0  0  0  0
    9.3371    4.4339    9.7547 O   0  0  0  0  0  0  0  0  0  0  0  0
    5.7415    2.4662    6.7441 O   0  0  0  0  0  0  0  0  0  0  0  0
    6.6554    3.6542    4.5410 O   0  0  0  0  0  0  0  0  0  0  0  0
    6.5151    2.4335    2.1345 O   0  0  0  0  0  0  0  0  0  0  0  0
    8.8189    2.2039    1.6190 O   0  0  0  0  0  0  0  0  0  0  0  0
    6.2933    5.0251    1.1353 O   0  0  0  0  0  0  0  0  0  0  0  0
   10.1628    3.3051   -1.3477 O   0  0  0  0  0  0  0  0  0  0  0  0
   10.4950    0.2113    1.6510 O   0  0  0  0  0  0  0  0  0  0  0  0
    4.4396    3.7997    8.8999 N   0  0  0  0  0  0  0  0  0  0  0  0
  1  2  1  0
  1 23  1  0
  1 26  1  6
  2  3  1  0
  2 33  1  6
  3  4  1  0
  3 24  1  1
  5  4  1  0
  4 25  1  6
  5  6  1  1
 23  5  1  0
  6 19  1  0
  8  7  1  0
  7 12  1  0
  7 21  1  6
  8  9  1  0
  8 28  1  6
  9 10  1  0
  9 27  1  6
 10 11  1  0
 10 26  1  1
 12 11  1  0
 11 20  1  1
 13 14  1  0
 13 28  1  6
 13 29  1  0
 14 15  1  0
 14 30  1  6
 15 16  1  0
 15 22  1  1
 16 17  1  0
 16 31  1  6
 17 18  1  1
 17 29  1  0
 18 32  1  0
M  CHG  5  19   1  20   1  21   1  22   1  33   1
M  END
$$$$
6np5_ligand
     RDKit          3D

 33 35  0  0  0  0  0  0  0  0999 V2000
    6.0651    2.4955    7.9193 C   0  0  2  0  0  0  0  0  0  0  0  0
    5.6710    3.2711    9.0725 C   0  0  1  0  0  0  0  0  0  0  0  0
    6.8034    4.3365    9.2941 C   0  0  2  0  0  0  0  0  0  0  0  0
    8.1521    3.6732    9.4955 C   0  0  1  0  0  0  0  0  0  0  0  0
    8.2254    3.0312    8.2148 C   0  0  1  0  0  0  0  0  0  0  0  0
    9.5865    2.4686    8.1002 C   0  0  0  0  0  0  0  0  0  0  0  0
    4.6353    0.8572    3.0032 C   0  0  1  0  0  0  0  0  0  0  0  0
    5.1276    2.2531    3.1594 C   0  0  1  0  0  0  0  0  0  0  0  0
    5.3466    2.6667    4.3769 C   0  0  2  0  0  0  0  0  0  0  0  0
    4.6725    2.2367    5.6874 C   0  0  1  0  0  0  0  0  0  0  0  0
    4.1550    0.8273    5.5893 C   0  0  2  0  0  0  0  0  0  0  0  0
    3.6471    0.7094    4.0730 C   0  0  0  0  0  0  0  0  0  0  0  0
    7.3129    3.0439    2.1203 C   0  0  1  0  0  0  0  0  0  0  0  0
    7.4366    4.3600    1.4551 C   0  0  1  0  0  0  0  0  0  0  0  0
    8.2943    4.2493    0.2596 C   0  0  2  0  0  0  0  0  0  0  0  0
    9.6572    3.5288    0.4171 C   0  0  1  0  0  0  0  0  0  0  0  0
    9.0923    2.1604    0.9020 C   0  0  1  0  0  0  0  0  0  0  0  0
   10.2802    0.9976    1.0818 C   0  0  0  0  0  0  0  0  0  0  0  0
   10.0732    1.1953    7.4456 N   0  0  0  0  0  0  0  0  0  0  0  0
    3.1878    0.5136    6.7350 N   0  0  0  0  0  0  0  0  0  0  0  0
    3.9102    0.6527    1.5027 N   0  0  0  0  0  0  0  0  0  0  0  0
    8.5069    5.7839   -0.5231 N   0  0  0  0  0  0  0  0  0  0  0  0
    7.4334    2.1665    7.7415 O   0  0  0  0  0  0  0  0  0  0  0  0
    6.3543    5.0177   10.7151 O   0  0  0  0  0  0  0  0  0  0  0  0
    9.0926    4.6392    9.7522 O   0  0  0  0  0  0  0  0  0  0  0  0
    5.5442    2.4169    6.8319 O   0  0  0  0  0  0  0  0  0  0  0  0
    6.1873    3.8498    4.4990 O   0  0  0  0  0  0  0  0  0  0  0  0
    6.2920    2.3739    2.3436 O   0  0  0  0  0  0  0  0  0  0  0  0
    8.4252    2.0325    1.8976 O   0  0  0  0  0  0  0  0  0  0  0  0
    6.1075    5.0209    1.2495 O   0  0  0  0  0  0  0  0  0  0  0  0
   10.3030    3.2873   -0.6685 O   0  0  0  0  0  0  0  0  0  0  0  0
    9.8773    0.0599    1.9688 O   0  0  0  0  0  0  0  0  0  0  0  0
    4.2148    3.7871    9.0654 N   0  0  0  0  0  0  0  0  0  0  0  0
  1  2  1  0
  1 23  1  0
  1 26  1  6
  2  3  1  0
  2 33  1  6
  3  4  1  0
  3 24  1  1
  5  4  1  0
  4 25  1  6
  5  6  1  1
 23  5  1  0
  6 19  1  0
  8  7  1  0
  7 12  1  0
  7 21  1  6
  8  9  1  0
  8 28  1  6
  9 10  1  0
  9 27  1  6
 10 11  1  0
 10 26  1  1
 12 11  1  0
 11 20  1  1
 13 14  1  0
 13 28  1  6
 13 29  1  0
 14 15  1  0
 14 30  1  6
 15 16  1  0
 15 22  1  1
 16 17  1  0
 16 31  1  6
 17 18  1  1
 17 29  1  0
 18 32  1  0
M  CHG  5  19   1  20   1  21   1  22   1  33   1
M  END
$$$$
6np5_ligand
     RDKit          3D

 33 35  0  0  0  0  0  0  0  0999 V2000
    6.1105    2.4513    7.8534 C   0  0  2  0  0  0  0  0  0  0  0  0
    5.6970    3.3365    8.9734 C   0  0  1  0  0  0  0  0  0  0  0  0
    6.8869    4.2850    9.2845 C   0  0  2  0  0  0  0  0  0  0  0  0
    8.1402    3.5322    9.5285 C   0  0  1  0  0  0  0  0  0  0  0  0
    8.2616    2.9587    8.2472 C   0  0  1  0  0  0  0  0  0  0  0  0
    9.5972    2.2921    8.2257 C   0  0  0  0  0  0  0  0  0  0  0  0
    4.8296    0.8321    3.1152 C   0  0  1  0  0  0  0  0  0  0  0  0
    5.3390    2.1823    3.2728 C   0  0  1  0  0  0  0  0  0  0  0  0
    5.5897    2.5867    4.4460 C   0  0  2  0  0  0  0  0  0  0  0  0
    4.8349    2.1995    5.6995 C   0  0  1  0  0  0  0  0  0  0  0  0
    4.2960    0.8048    5.6254 C   0  0  2  0  0  0  0  0  0  0  0  0
    3.8251    0.6810    4.1012 C   0  0  0  0  0  0  0  0  0  0  0  0
    7.4999    3.0010    2.2794 C   0  0  1  0  0  0  0  0  0  0  0  0
    7.5820    4.3323    1.6552 C   0  0  1  0  0  0  0  0  0  0  0  0
    8.4883    4.2852    0.4300 C   0  0  2  0  0  0  0  0  0  0  0  0
    9.8188    3.5728    0.6255 C   0  0  1  0  0  0  0  0  0  0  0  0
    9.2926    2.2085    1.0096 C   0  0  1  0  0  0  0  0  0  0  0  0
   10.4919    1.0688    1.1747 C   0  0  0  0  0  0  0  0  0  0  0  0
   10.0159    1.0970    7.4954 N   0  0  0  0  0  0  0  0  0  0  0  0
    3.3020    0.5577    6.7544 N   0  0  0  0  0  0  0  0  0  0  0  0
    4.1564    0.6221    1.6146 N   0  0  0  0  0  0  0  0  0  0  0  0
    8.6518    5.9028   -0.2105 N   0  0  0  0  0  0  0  0  0  0  0  0
    7.4150    2.0985    7.7613 O   0  0  0  0  0  0  0  0  0  0  0  0
    6.3558    4.9830   10.6941 O   0  0  0  0  0  0  0  0  0  0  0  0
    9.1517    4.4409    9.8576 O   0  0  0  0  0  0  0  0  0  0  0  0
    5.6341    2.4109    6.8142 O   0  0  0  0  0  0  0  0  0  0  0  0
    6.4797    3.7499    4.6022 O   0  0  0  0  0  0  0  0  0  0  0  0
    6.4871    2.2889    2.5188 O   0  0  0  0  0  0  0  0  0  0  0  0
    8.6015    2.0428    1.9939 O   0  0  0  0  0  0  0  0  0  0  0  0
    6.2508    4.9241    1.4047 O   0  0  0  0  0  0  0  0  0  0  0  0
   10.5246    3.4144   -0.4247 O   0  0  0  0  0  0  0  0  0  0  0  0
   10.0420   -0.1151    1.8193 O   0  0  0  0  0  0  0  0  0  0  0  0
    4.3250    3.9643    8.7582 N   0  0  0  0  0  0  0  0  0  0  0  0
  1  2  1  0
  1 23  1  0
  1 26  1  6
  2  3  1  0
  2 33  1  6
  3  4  1  0
  3 24  1  1
  5  4  1  0
  4 25  1  6
  5  6  1  1
 23  5  1  0
  6 19  1  0
  8  7  1  0
  7 12  1  0
  7 21  1  6
  8  9  1  0
  8 28  1  6
  9 10  1  0
  9 27  1  6
 10 11  1  0
 10 26  1  1
 12 11  1  0
 11 20  1  1
 13 14  1  0
 13 28  1  6
 13 29  1  0
 14 15  1  0
 14 30  1  6
 15 16  1  0
 15 22  1  1
 16 17  1  0
 16 31  1  6
 17 18  1  1
 17 29  1  0
 18 32  1  0
M  CHG  5  19   1  20   1  21   1  22   1  33   1
M  END
$$$$
6np5_ligand
     RDKit          3D

 33 35  0  0  0  0  0  0  0  0999 V2000
    6.3199    2.1781    7.6217 C   0  0  2  0  0  0  0  0  0  0  0  0
    5.9643    3.0825    8.7245 C   0  0  1  0  0  0  0  0  0  0  0  0
    7.1070    3.9904    9.0140 C   0  0  2  0  0  0  0  0  0  0  0  0
    8.3470    3.2303    9.2387 C   0  0  1  0  0  0  0  0  0  0  0  0
    8.4415    2.6771    7.9145 C   0  0  1  0  0  0  0  0  0  0  0  0
    9.7761    1.9294    7.9794 C   0  0  0  0  0  0  0  0  0  0  0  0
    5.0411    0.6792    2.9625 C   0  0  1  0  0  0  0  0  0  0  0  0
    5.5554    2.0342    3.1182 C   0  0  1  0  0  0  0  0  0  0  0  0
    5.9157    2.3483    4.3325 C   0  0  2  0  0  0  0  0  0  0  0  0
    5.0606    1.9788    5.5694 C   0  0  1  0  0  0  0  0  0  0  0  0
    4.5050    0.6108    5.5166 C   0  0  2  0  0  0  0  0  0  0  0  0
    3.9726    0.5560    4.0164 C   0  0  0  0  0  0  0  0  0  0  0  0
    7.6498    2.9542    2.1002 C   0  0  1  0  0  0  0  0  0  0  0  0
    7.7837    4.2132    1.4102 C   0  0  1  0  0  0  0  0  0  0  0  0
    8.8649    4.1121    0.2733 C   0  0  2  0  0  0  0  0  0  0  0  0
   10.1024    3.4496    0.6245 C   0  0  1  0  0  0  0  0  0  0  0  0
    9.5669    2.1633    1.0539 C   0  0  1  0  0  0  0  0  0  0  0  0
   10.7130    1.0136    1.3970 C   0  0  0  0  0  0  0  0  0  0  0  0
   10.0989    0.9343    6.9209 N   0  0  0  0  0  0  0  0  0  0  0  0
    3.4966    0.3921    6.6423 N   0  0  0  0  0  0  0  0  0  0  0  0
    4.3352    0.5874    1.4635 N   0  0  0  0  0  0  0  0  0  0  0  0
    9.0535    5.7226   -0.3954 N   0  0  0  0  0  0  0  0  0  0  0  0
    7.5778    1.7860    7.5287 O   0  0  0  0  0  0  0  0  0  0  0  0
    6.6429    4.6960   10.3905 O   0  0  0  0  0  0  0  0  0  0  0  0
    9.4069    4.1343    9.5405 O   0  0  0  0  0  0  0  0  0  0  0  0
    5.8700    2.2104    6.6398 O   0  0  0  0  0  0  0  0  0  0  0  0
    6.8637    3.3992    4.5204 O   0  0  0  0  0  0  0  0  0  0  0  0
    6.6616    2.1915    2.3044 O   0  0  0  0  0  0  0  0  0  0  0  0
    8.7770    2.0440    1.9715 O   0  0  0  0  0  0  0  0  0  0  0  0
    6.4698    4.7435    1.0055 O   0  0  0  0  0  0  0  0  0  0  0  0
   10.8827    3.2266   -0.3568 O   0  0  0  0  0  0  0  0  0  0  0  0
   10.2568   -0.0702    2.2683 O   0  0  0  0  0  0  0  0  0  0  0  0
    4.6123    3.8229    8.5084 N   0  0  0  0  0  0  0  0  0  0  0  0
  1  2  1  0
  1 23  1  0
  1 26  1  6
  2  3  1  0
  2 33  1  6
  3  4  1  0
  3 24  1  1
  5  4  1  0
  4 25  1  6
  5  6  1  1
 23  5  1  0
  6 19  1  0
  8  7  1  0
  7 12  1  0
  7 21  1  6
  8  9  1  0
  8 28  1  6
  9 10  1  0
  9 27  1  6
 10 11  1  0
 10 26  1  1
 12 11  1  0
 11 20  1  1
 13 14  1  0
 13 28  1  6
 13 29  1  0
 14 15  1  0
 14 30  1  6
 15 16  1  0
 15 22  1  1
 16 17  1  0
 16 31  1  6
 17 18  1  1
 17 29  1  0
 18 32  1  0
M  CHG  5  19   1  20   1  21   1  22   1  33   1
M  END
$$$$
6np5_ligand
     RDKit          3D

 33 35  0  0  0  0  0  0  0  0999 V2000
    6.2379    2.1693    7.8191 C   0  0  2  0  0  0  0  0  0  0  0  0
    5.7946    3.0819    8.9032 C   0  0  1  0  0  0  0  0  0  0  0  0
    6.8842    4.0043    9.2923 C   0  0  2  0  0  0  0  0  0  0  0  0
    8.1757    3.2465    9.5935 C   0  0  1  0  0  0  0  0  0  0  0  0
    8.4010    2.7450    8.1656 C   0  0  1  0  0  0  0  0  0  0  0  0
    9.7402    2.0712    8.2808 C   0  0  0  0  0  0  0  0  0  0  0  0
    4.8872    0.7462    3.0671 C   0  0  1  0  0  0  0  0  0  0  0  0
    5.4424    2.0847    3.2927 C   0  0  1  0  0  0  0  0  0  0  0  0
    5.7421    2.3376    4.5607 C   0  0  2  0  0  0  0  0  0  0  0  0
    4.9221    1.9666    5.7479 C   0  0  1  0  0  0  0  0  0  0  0  0
    4.3266    0.6405    5.6247 C   0  0  2  0  0  0  0  0  0  0  0  0
    3.7954    0.6622    4.1143 C   0  0  0  0  0  0  0  0  0  0  0  0
    7.5130    2.9924    2.3248 C   0  0  1  0  0  0  0  0  0  0  0  0
    7.5737    4.2487    1.6263 C   0  0  1  0  0  0  0  0  0  0  0  0
    8.6292    4.2026    0.4520 C   0  0  2  0  0  0  0  0  0  0  0  0
    9.9047    3.5988    0.8341 C   0  0  1  0  0  0  0  0  0  0  0  0
    9.4350    2.2584    1.2213 C   0  0  1  0  0  0  0  0  0  0  0  0
   10.6641    1.2119    1.5303 C   0  0  0  0  0  0  0  0  0  0  0  0
   10.1972    1.2770    7.2624 N   0  0  0  0  0  0  0  0  0  0  0  0
    3.3157    0.4104    6.6826 N   0  0  0  0  0  0  0  0  0  0  0  0
    4.2027    0.7801    1.5835 N   0  0  0  0  0  0  0  0  0  0  0  0
    8.7138    5.7896   -0.1188 N   0  0  0  0  0  0  0  0  0  0  0  0
    7.5250    1.7900    7.7513 O   0  0  0  0  0  0  0  0  0  0  0  0
    6.3380    4.6362   10.6053 O   0  0  0  0  0  0  0  0  0  0  0  0
    9.1570    4.0734   10.1034 O   0  0  0  0  0  0  0  0  0  0  0  0
    5.8439    2.1225    6.7985 O   0  0  0  0  0  0  0  0  0  0  0  0
    6.7148    3.4548    4.7812 O   0  0  0  0  0  0  0  0  0  0  0  0
    6.5144    2.1833    2.5299 O   0  0  0  0  0  0  0  0  0  0  0  0
    8.6377    2.1168    2.2127 O   0  0  0  0  0  0  0  0  0  0  0  0
    6.2011    4.6449    1.2184 O   0  0  0  0  0  0  0  0  0  0  0  0
   10.6863    3.4769   -0.1573 O   0  0  0  0  0  0  0  0  0  0  0  0
   10.2274    0.0680    2.3186 O   0  0  0  0  0  0  0  0  0  0  0  0
    4.5279    3.8886    8.5998 N   0  0  0  0  0  0  0  0  0  0  0  0
  1  2  1  0
  1 23  1  0
  1 26  1  6
  2  3  1  0
  2 33  1  6
  3  4  1  0
  3 24  1  1
  5  4  1  0
  4 25  1  6
  5  6  1  1
 23  5  1  0
  6 19  1  0
  8  7  1  0
  7 12  1  0
  7 21  1  6
  8  9  1  0
  8 28  1  6
  9 10  1  0
  9 27  1  6
 10 11  1  0
 10 26  1  1
 12 11  1  0
 11 20  1  1
 13 14  1  0
 13 28  1  6
 13 29  1  0
 14 15  1  0
 14 30  1  6
 15 16  1  0
 15 22  1  1
 16 17  1  0
 16 31  1  6
 17 18  1  1
 17 29  1  0
 18 32  1  0
M  CHG  5  19   1  20   1  21   1  22   1  33   1
M  END
$$$$
6np5_ligand
     RDKit          3D

 33 35  0  0  0  0  0  0  0  0999 V2000
    6.0584    2.1932    7.6621 C   0  0  2  0  0  0  0  0  0  0  0  0
    5.6494    3.0994    8.8026 C   0  0  1  0  0  0  0  0  0  0  0  0
    6.8033    4.0063    9.2345 C   0  0  2  0  0  0  0  0  0  0  0  0
    8.0881    3.2049    9.4722 C   0  0  1  0  0  0  0  0  0  0  0  0
    8.2459    2.7353    8.0856 C   0  0  1  0  0  0  0  0  0  0  0  0
    9.5895    2.0580    8.1664 C   0  0  0  0  0  0  0  0  0  0  0  0
    4.7708    0.7481    2.9358 C   0  0  1  0  0  0  0  0  0  0  0  0
    5.3424    2.1174    3.0659 C   0  0  1  0  0  0  0  0  0  0  0  0
    5.5867    2.4003    4.4022 C   0  0  2  0  0  0  0  0  0  0  0  0
    4.8403    2.0127    5.5777 C   0  0  1  0  0  0  0  0  0  0  0  0
    4.2730    0.6691    5.4686 C   0  0  2  0  0  0  0  0  0  0  0  0
    3.7203    0.6394    3.9651 C   0  0  0  0  0  0  0  0  0  0  0  0
    7.4713    2.9197    2.1747 C   0  0  1  0  0  0  0  0  0  0  0  0
    7.6658    4.2448    1.6177 C   0  0  1  0  0  0  0  0  0  0  0  0
    8.6939    4.2619    0.4536 C   0  0  2  0  0  0  0  0  0  0  0  0
    9.9270    3.4587    0.7086 C   0  0  1  0  0  0  0  0  0  0  0  0
    9.3216    2.1082    0.9204 C   0  0  1  0  0  0  0  0  0  0  0  0
   10.4632    0.9567    1.0734 C   0  0  0  0  0  0  0  0  0  0  0  0
   10.0737    1.2565    7.0480 N   0  0  0  0  0  0  0  0  0  0  0  0
    3.2519    0.4409    6.5572 N   0  0  0  0  0  0  0  0  0  0  0  0
    3.9436    0.7380    1.5320 N   0  0  0  0  0  0  0  0  0  0  0  0
    8.9819    5.8517    0.0792 N   0  0  0  0  0  0  0  0  0  0  0  0
    7.3427    1.7949    7.5842 O   0  0  0  0  0  0  0  0  0  0  0  0
    6.2729    4.6624   10.5882 O   0  0  0  0  0  0  0  0  0  0  0  0
    9.0835    4.0042    9.9708 O   0  0  0  0  0  0  0  0  0  0  0  0
    5.6678    2.2165    6.6675 O   0  0  0  0  0  0  0  0  0  0  0  0
    6.5322    3.5469    4.5957 O   0  0  0  0  0  0  0  0  0  0  0  0
    6.4173    2.2331    2.3570 O   0  0  0  0  0  0  0  0  0  0  0  0
    8.4666    1.9433    1.9544 O   0  0  0  0  0  0  0  0  0  0  0  0
    6.3441    4.7928    1.1886 O   0  0  0  0  0  0  0  0  0  0  0  0
   10.6186    3.3524   -0.4119 O   0  0  0  0  0  0  0  0  0  0  0  0
    9.9138   -0.1644    1.7901 O   0  0  0  0  0  0  0  0  0  0  0  0
    4.4046    3.9295    8.5355 N   0  0  0  0  0  0  0  0  0  0  0  0
  1  2  1  0
  1 23  1  0
  1 26  1  6
  2  3  1  0
  2 33  1  6
  3  4  1  0
  3 24  1  1
  5  4  1  0
  4 25  1  6
  5  6  1  1
 23  5  1  0
  6 19  1  0
  8  7  1  0
  7 12  1  0
  7 21  1  6
  8  9  1  0
  8 28  1  6
  9 10  1  0
  9 27  1  6
 10 11  1  0
 10 26  1  1
 12 11  1  0
 11 20  1  1
 13 14  1  0
 13 28  1  6
 13 29  1  0
 14 15  1  0
 14 30  1  6
 15 16  1  0
 15 22  1  1
 16 17  1  0
 16 31  1  6
 17 18  1  1
 17 29  1  0
 18 32  1  0
M  CHG  5  19   1  20   1  21   1  22   1  33   1
M  END
$$$$
6np5_ligand
     RDKit          3D

 33 35  0  0  0  0  0  0  0  0999 V2000
    6.2195    2.1466    7.7971 C   0  0  2  0  0  0  0  0  0  0  0  0
    5.8289    2.9429    8.9988 C   0  0  1  0  0  0  0  0  0  0  0  0
    6.9238    3.9214    9.3961 C   0  0  2  0  0  0  0  0  0  0  0  0
    8.2783    3.2233    9.5222 C   0  0  1  0  0  0  0  0  0  0  0  0
    8.3978    2.7603    8.1357 C   0  0  1  0  0  0  0  0  0  0  0  0
    9.7601    2.0879    8.0831 C   0  0  0  0  0  0  0  0  0  0  0  0
    4.8770    0.7895    3.0745 C   0  0  1  0  0  0  0  0  0  0  0  0
    5.4219    2.1850    3.2038 C   0  0  1  0  0  0  0  0  0  0  0  0
    5.7217    2.4479    4.5255 C   0  0  2  0  0  0  0  0  0  0  0  0
    4.9322    2.0720    5.7201 C   0  0  1  0  0  0  0  0  0  0  0  0
    4.3292    0.7445    5.5936 C   0  0  2  0  0  0  0  0  0  0  0  0
    3.7702    0.7090    4.0924 C   0  0  0  0  0  0  0  0  0  0  0  0
    7.5269    3.0136    2.2442 C   0  0  1  0  0  0  0  0  0  0  0  0
    7.6704    4.3537    1.6475 C   0  0  1  0  0  0  0  0  0  0  0  0
    8.6509    4.3105    0.4640 C   0  0  2  0  0  0  0  0  0  0  0  0
    9.9189    3.4924    0.7236 C   0  0  1  0  0  0  0  0  0  0  0  0
    9.3243    2.1132    0.9731 C   0  0  1  0  0  0  0  0  0  0  0  0
   10.4363    0.9892    1.1760 C   0  0  0  0  0  0  0  0  0  0  0  0
   10.2638    1.3876    7.0517 N   0  0  0  0  0  0  0  0  0  0  0  0
    3.2246    0.6050    6.6357 N   0  0  0  0  0  0  0  0  0  0  0  0
    4.0846    0.7421    1.6623 N   0  0  0  0  0  0  0  0  0  0  0  0
    8.9585    5.7936   -0.0600 N   0  0  0  0  0  0  0  0  0  0  0  0
    7.5177    1.8090    7.6418 O   0  0  0  0  0  0  0  0  0  0  0  0
    6.4326    4.4787   10.8021 O   0  0  0  0  0  0  0  0  0  0  0  0
    9.2744    4.1339    9.9278 O   0  0  0  0  0  0  0  0  0  0  0  0
    5.7598    2.2066    6.8195 O   0  0  0  0  0  0  0  0  0  0  0  0
    6.6870    3.5345    4.7286 O   0  0  0  0  0  0  0  0  0  0  0  0
    6.4758    2.3319    2.4133 O   0  0  0  0  0  0  0  0  0  0  0  0
    8.5339    2.0341    2.0274 O   0  0  0  0  0  0  0  0  0  0  0  0
    6.3592    4.8550    1.2536 O   0  0  0  0  0  0  0  0  0  0  0  0
   10.6665    3.3726   -0.3344 O   0  0  0  0  0  0  0  0  0  0  0  0
    9.9198   -0.0569    1.8419 O   0  0  0  0  0  0  0  0  0  0  0  0
    4.4624    3.6819    8.8719 N   0  0  0  0  0  0  0  0  0  0  0  0
  1  2  1  0
  1 23  1  0
  1 26  1  6
  2  3  1  0
  2 33  1  6
  3  4  1  0
  3 24  1  1
  5  4  1  0
  4 25  1  6
  5  6  1  1
 23  5  1  0
  6 19  1  0
  8  7  1  0
  7 12  1  0
  7 21  1  6
  8  9  1  0
  8 28  1  6
  9 10  1  0
  9 27  1  6
 10 11  1  0
 10 26  1  1
 12 11  1  0
 11 20  1  1
 13 14  1  0
 13 28  1  6
 13 29  1  0
 14 15  1  0
 14 30  1  6
 15 16  1  0
 15 22  1  1
 16 17  1  0
 16 31  1  6
 17 18  1  1
 17 29  1  0
 18 32  1  0
M  CHG  5  19   1  20   1  21   1  22   1  33   1
M  END
$$$$
6np5_ligand
     RDKit          3D

 33 35  0  0  0  0  0  0  0  0999 V2000
    6.1482    2.1033    7.7635 C   0  0  2  0  0  0  0  0  0  0  0  0
    5.7931    2.9516    8.9697 C   0  0  1  0  0  0  0  0  0  0  0  0
    6.8951    3.9507    9.2769 C   0  0  2  0  0  0  0  0  0  0  0  0
    8.2691    3.2463    9.4276 C   0  0  1  0  0  0  0  0  0  0  0  0
    8.3583    2.6863    8.0369 C   0  0  1  0  0  0  0  0  0  0  0  0
    9.7167    1.9846    7.9985 C   0  0  0  0  0  0  0  0  0  0  0  0
    4.8343    0.7936    3.1468 C   0  0  1  0  0  0  0  0  0  0  0  0
    5.3861    2.1743    3.2530 C   0  0  1  0  0  0  0  0  0  0  0  0
    5.6934    2.4780    4.5641 C   0  0  2  0  0  0  0  0  0  0  0  0
    4.9010    2.0738    5.7554 C   0  0  1  0  0  0  0  0  0  0  0  0
    4.3092    0.7285    5.6323 C   0  0  2  0  0  0  0  0  0  0  0  0
    3.7559    0.6876    4.1767 C   0  0  0  0  0  0  0  0  0  0  0  0
    7.5083    3.0572    2.3096 C   0  0  1  0  0  0  0  0  0  0  0  0
    7.6455    4.3473    1.5758 C   0  0  1  0  0  0  0  0  0  0  0  0
    8.5480    4.2532    0.3642 C   0  0  2  0  0  0  0  0  0  0  0  0
    9.8729    3.4677    0.6003 C   0  0  1  0  0  0  0  0  0  0  0  0
    9.3050    2.1109    1.0045 C   0  0  1  0  0  0  0  0  0  0  0  0
   10.4847    1.0281    1.2459 C   0  0  0  0  0  0  0  0  0  0  0  0
   10.1919    1.2618    6.9696 N   0  0  0  0  0  0  0  0  0  0  0  0
    3.2317    0.5741    6.6679 N   0  0  0  0  0  0  0  0  0  0  0  0
    4.0099    0.8095    1.7321 N   0  0  0  0  0  0  0  0  0  0  0  0
    8.8437    5.6408   -0.2922 N   0  0  0  0  0  0  0  0  0  0  0  0
    7.4499    1.7052    7.6321 O   0  0  0  0  0  0  0  0  0  0  0  0
    6.4898    4.6073   10.6592 O   0  0  0  0  0  0  0  0  0  0  0  0
    9.2880    4.1456    9.7915 O   0  0  0  0  0  0  0  0  0  0  0  0
    5.7380    2.2326    6.8115 O   0  0  0  0  0  0  0  0  0  0  0  0
    6.6027    3.5792    4.8064 O   0  0  0  0  0  0  0  0  0  0  0  0
    6.4713    2.2997    2.4858 O   0  0  0  0  0  0  0  0  0  0  0  0
    8.5717    2.1135    2.1314 O   0  0  0  0  0  0  0  0  0  0  0  0
    6.3093    4.7901    1.1231 O   0  0  0  0  0  0  0  0  0  0  0  0
   10.5419    3.2665   -0.5197 O   0  0  0  0  0  0  0  0  0  0  0  0
    9.8667   -0.0412    1.8998 O   0  0  0  0  0  0  0  0  0  0  0  0
    4.4169    3.6967    8.8345 N   0  0  0  0  0  0  0  0  0  0  0  0
  1  2  1  0
  1 23  1  0
  1 26  1  6
  2  3  1  0
  2 33  1  6
  3  4  1  0
  3 24  1  1
  5  4  1  0
  4 25  1  6
  5  6  1  1
 23  5  1  0
  6 19  1  0
  8  7  1  0
  7 12  1  0
  7 21  1  6
  8  9  1  0
  8 28  1  6
  9 10  1  0
  9 27  1  6
 10 11  1  0
 10 26  1  1
 12 11  1  0
 11 20  1  1
 13 14  1  0
 13 28  1  6
 13 29  1  0
 14 15  1  0
 14 30  1  6
 15 16  1  0
 15 22  1  1
 16 17  1  0
 16 31  1  6
 17 18  1  1
 17 29  1  0
 18 32  1  0
M  CHG  5  19   1  20   1  21   1  22   1  33   1
M  END
$$$$
6np5_ligand
     RDKit          3D

 33 35  0  0  0  0  0  0  0  0999 V2000
    6.2054    2.1088    7.7111 C   0  0  2  0  0  0  0  0  0  0  0  0
    5.8502    2.9998    8.8894 C   0  0  1  0  0  0  0  0  0  0  0  0
    6.9785    3.9619    9.1782 C   0  0  2  0  0  0  0  0  0  0  0  0
    8.3299    3.2536    9.2871 C   0  0  1  0  0  0  0  0  0  0  0  0
    8.4131    2.6495    7.8975 C   0  0  1  0  0  0  0  0  0  0  0  0
    9.7624    1.8851    7.8312 C   0  0  0  0  0  0  0  0  0  0  0  0
    4.9304    0.7595    3.0824 C   0  0  1  0  0  0  0  0  0  0  0  0
    5.5258    2.1152    3.2008 C   0  0  1  0  0  0  0  0  0  0  0  0
    5.8412    2.4113    4.5226 C   0  0  2  0  0  0  0  0  0  0  0  0
    5.0342    2.0229    5.7091 C   0  0  1  0  0  0  0  0  0  0  0  0
    4.4554    0.6632    5.5863 C   0  0  2  0  0  0  0  0  0  0  0  0
    3.8872    0.6245    4.1484 C   0  0  0  0  0  0  0  0  0  0  0  0
    7.6498    2.9740    2.2422 C   0  0  1  0  0  0  0  0  0  0  0  0
    7.7780    4.2827    1.5523 C   0  0  1  0  0  0  0  0  0  0  0  0
    8.6002    4.1980    0.2889 C   0  0  2  0  0  0  0  0  0  0  0  0
    9.9073    3.3642    0.4043 C   0  0  1  0  0  0  0  0  0  0  0  0
    9.3579    2.0023    0.8240 C   0  0  1  0  0  0  0  0  0  0  0  0
   10.5515    0.9043    1.0025 C   0  0  0  0  0  0  0  0  0  0  0  0
   10.2391    1.2307    6.7507 N   0  0  0  0  0  0  0  0  0  0  0  0
    3.3850    0.4757    6.6095 N   0  0  0  0  0  0  0  0  0  0  0  0
    4.0782    0.8296    1.7086 N   0  0  0  0  0  0  0  0  0  0  0  0
    8.8914    5.5734   -0.3479 N   0  0  0  0  0  0  0  0  0  0  0  0
    7.5070    1.6874    7.5701 O   0  0  0  0  0  0  0  0  0  0  0  0
    6.6020    4.6279   10.5681 O   0  0  0  0  0  0  0  0  0  0  0  0
    9.3714    4.1661    9.6013 O   0  0  0  0  0  0  0  0  0  0  0  0
    5.8156    2.1758    6.7952 O   0  0  0  0  0  0  0  0  0  0  0  0
    6.7845    3.4954    4.7653 O   0  0  0  0  0  0  0  0  0  0  0  0
    6.5953    2.2123    2.4263 O   0  0  0  0  0  0  0  0  0  0  0  0
    8.6682    2.0157    1.9957 O   0  0  0  0  0  0  0  0  0  0  0  0
    6.4434    4.8087    1.2141 O   0  0  0  0  0  0  0  0  0  0  0  0
   10.4625    3.1651   -0.8008 O   0  0  0  0  0  0  0  0  0  0  0  0
   10.1229   -0.0226    1.8117 O   0  0  0  0  0  0  0  0  0  0  0  0
    4.4856    3.7545    8.7355 N   0  0  0  0  0  0  0  0  0  0  0  0
  1  2  1  0
  1 23  1  0
  1 26  1  6
  2  3  1  0
  2 33  1  6
  3  4  1  0
  3 24  1  1
  5  4  1  0
  4 25  1  6
  5  6  1  1
 23  5  1  0
  6 19  1  0
  8  7  1  0
  7 12  1  0
  7 21  1  6
  8  9  1  0
  8 28  1  6
  9 10  1  0
  9 27  1  6
 10 11  1  0
 10 26  1  1
 12 11  1  0
 11 20  1  1
 13 14  1  0
 13 28  1  6
 13 29  1  0
 14 15  1  0
 14 30  1  6
 15 16  1  0
 15 22  1  1
 16 17  1  0
 16 31  1  6
 17 18  1  1
 17 29  1  0
 18 32  1  0
M  CHG  5  19   1  20   1  21   1  22   1  33   1
M  END
$$$$
6np5_ligand
     RDKit          3D

 33 35  0  0  0  0  0  0  0  0999 V2000
    5.9391    2.0143    7.7941 C   0  0  2  0  0  0  0  0  0  0  0  0
    5.6284    2.9436    8.9934 C   0  0  1  0  0  0  0  0  0  0  0  0
    6.7453    3.9208    9.2077 C   0  0  2  0  0  0  0  0  0  0  0  0
    8.0985    3.2380    9.2498 C   0  0  1  0  0  0  0  0  0  0  0  0
    8.1415    2.5284    7.9153 C   0  0  1  0  0  0  0  0  0  0  0  0
    9.4700    1.7167    7.8861 C   0  0  0  0  0  0  0  0  0  0  0  0
    4.7863    0.7736    3.1857 C   0  0  1  0  0  0  0  0  0  0  0  0
    5.3737    2.1114    3.3154 C   0  0  1  0  0  0  0  0  0  0  0  0
    5.6599    2.4218    4.6692 C   0  0  2  0  0  0  0  0  0  0  0  0
    4.8215    2.0090    5.8027 C   0  0  1  0  0  0  0  0  0  0  0  0
    4.2645    0.6525    5.6571 C   0  0  2  0  0  0  0  0  0  0  0  0
    3.7025    0.6236    4.2257 C   0  0  0  0  0  0  0  0  0  0  0  0
    7.4837    2.9516    2.4169 C   0  0  1  0  0  0  0  0  0  0  0  0
    7.5836    4.3007    1.7825 C   0  0  1  0  0  0  0  0  0  0  0  0
    8.3698    4.2660    0.4883 C   0  0  2  0  0  0  0  0  0  0  0  0
    9.6515    3.4177    0.5049 C   0  0  1  0  0  0  0  0  0  0  0  0
    9.1577    2.0125    0.9241 C   0  0  1  0  0  0  0  0  0  0  0  0
   10.3792    0.9438    1.0523 C   0  0  0  0  0  0  0  0  0  0  0  0
    9.9049    1.0947    6.7084 N   0  0  0  0  0  0  0  0  0  0  0  0
    3.1990    0.3973    6.6561 N   0  0  0  0  0  0  0  0  0  0  0  0
    4.0109    0.8052    1.7771 N   0  0  0  0  0  0  0  0  0  0  0  0
    8.6251    5.6752   -0.0925 N   0  0  0  0  0  0  0  0  0  0  0  0
    7.2219    1.5747    7.6946 O   0  0  0  0  0  0  0  0  0  0  0  0
    6.4601    4.6268   10.5972 O   0  0  0  0  0  0  0  0  0  0  0  0
    9.1543    4.2415    9.3917 O   0  0  0  0  0  0  0  0  0  0  0  0
    5.5335    2.1680    6.8987 O   0  0  0  0  0  0  0  0  0  0  0  0
    6.5876    3.4767    4.9305 O   0  0  0  0  0  0  0  0  0  0  0  0
    6.4166    2.1902    2.5757 O   0  0  0  0  0  0  0  0  0  0  0  0
    8.4902    2.0036    2.0960 O   0  0  0  0  0  0  0  0  0  0  0  0
    6.2329    4.8263    1.5018 O   0  0  0  0  0  0  0  0  0  0  0  0
   10.1413    3.2573   -0.7423 O   0  0  0  0  0  0  0  0  0  0  0  0
    9.9097   -0.1006    1.8157 O   0  0  0  0  0  0  0  0  0  0  0  0
    4.2570    3.7120    8.8837 N   0  0  0  0  0  0  0  0  0  0  0  0
  1  2  1  0
  1 23  1  0
  1 26  1  6
  2  3  1  0
  2 33  1  6
  3  4  1  0
  3 24  1  1
  5  4  1  0
  4 25  1  6
  5  6  1  1
 23  5  1  0
  6 19  1  0
  8  7  1  0
  7 12  1  0
  7 21  1  6
  8  9  1  0
  8 28  1  6
  9 10  1  0
  9 27  1  6
 10 11  1  0
 10 26  1  1
 12 11  1  0
 11 20  1  1
 13 14  1  0
 13 28  1  6
 13 29  1  0
 14 15  1  0
 14 30  1  6
 15 16  1  0
 15 22  1  1
 16 17  1  0
 16 31  1  6
 17 18  1  1
 17 29  1  0
 18 32  1  0
M  CHG  5  19   1  20   1  21   1  22   1  33   1
M  END
$$$$
6np5_ligand
     RDKit          3D

 33 35  0  0  0  0  0  0  0  0999 V2000
    6.0171    1.8921    7.8288 C   0  0  2  0  0  0  0  0  0  0  0  0
    5.7298    2.8579    9.0094 C   0  0  1  0  0  0  0  0  0  0  0  0
    6.8322    3.8643    9.1415 C   0  0  2  0  0  0  0  0  0  0  0  0
    8.2058    3.2231    9.1485 C   0  0  1  0  0  0  0  0  0  0  0  0
    8.2178    2.4594    7.8400 C   0  0  1  0  0  0  0  0  0  0  0  0
    9.5710    1.6994    7.7783 C   0  0  0  0  0  0  0  0  0  0  0  0
    4.8915    0.7074    3.1791 C   0  0  1  0  0  0  0  0  0  0  0  0
    5.4697    2.0584    3.3425 C   0  0  1  0  0  0  0  0  0  0  0  0
    5.7327    2.3430    4.7241 C   0  0  2  0  0  0  0  0  0  0  0  0
    4.9023    1.8870    5.8438 C   0  0  1  0  0  0  0  0  0  0  0  0
    4.3600    0.5324    5.6554 C   0  0  2  0  0  0  0  0  0  0  0  0
    3.7961    0.5248    4.2198 C   0  0  0  0  0  0  0  0  0  0  0  0
    7.5659    2.9152    2.4790 C   0  0  1  0  0  0  0  0  0  0  0  0
    7.6426    4.2338    1.7564 C   0  0  1  0  0  0  0  0  0  0  0  0
    8.3571    4.1021    0.4299 C   0  0  2  0  0  0  0  0  0  0  0  0
    9.6447    3.2642    0.4362 C   0  0  1  0  0  0  0  0  0  0  0  0
    9.1969    1.9007    1.0159 C   0  0  1  0  0  0  0  0  0  0  0  0
   10.4536    0.9056    1.2205 C   0  0  0  0  0  0  0  0  0  0  0  0
    9.9477    1.0186    6.6467 N   0  0  0  0  0  0  0  0  0  0  0  0
    3.2587    0.2640    6.6376 N   0  0  0  0  0  0  0  0  0  0  0  0
    4.1169    0.7665    1.7742 N   0  0  0  0  0  0  0  0  0  0  0  0
    8.5710    5.4718   -0.2654 N   0  0  0  0  0  0  0  0  0  0  0  0
    7.3212    1.4777    7.7074 O   0  0  0  0  0  0  0  0  0  0  0  0
    6.6038    4.6109   10.5088 O   0  0  0  0  0  0  0  0  0  0  0  0
    9.2427    4.2495    9.2059 O   0  0  0  0  0  0  0  0  0  0  0  0
    5.5766    2.0228    6.9568 O   0  0  0  0  0  0  0  0  0  0  0  0
    6.6459    3.4015    4.9993 O   0  0  0  0  0  0  0  0  0  0  0  0
    6.4982    2.1268    2.6086 O   0  0  0  0  0  0  0  0  0  0  0  0
    8.5960    1.9896    2.2371 O   0  0  0  0  0  0  0  0  0  0  0  0
    6.2719    4.7224    1.5022 O   0  0  0  0  0  0  0  0  0  0  0  0
   10.0268    2.9873   -0.8541 O   0  0  0  0  0  0  0  0  0  0  0  0
    9.9793   -0.1593    1.9851 O   0  0  0  0  0  0  0  0  0  0  0  0
    4.3293    3.5826    8.9197 N   0  0  0  0  0  0  0  0  0  0  0  0
  1  2  1  0
  1 23  1  0
  1 26  1  6
  2  3  1  0
  2 33  1  6
  3  4  1  0
  3 24  1  1
  5  4  1  0
  4 25  1  6
  5  6  1  1
 23  5  1  0
  6 19  1  0
  8  7  1  0
  7 12  1  0
  7 21  1  6
  8  9  1  0
  8 28  1  6
  9 10  1  0
  9 27  1  6
 10 11  1  0
 10 26  1  1
 12 11  1  0
 11 20  1  1
 13 14  1  0
 13 28  1  6
 13 29  1  0
 14 15  1  0
 14 30  1  6
 15 16  1  0
 15 22  1  1
 16 17  1  0
 16 31  1  6
 17 18  1  1
 17 29  1  0
 18 32  1  0
M  CHG  5  19   1  20   1  21   1  22   1  33   1
M  END
$$$$
6np5_ligand
     RDKit          3D

 33 35  0  0  0  0  0  0  0  0999 V2000
    5.9478    1.8768    7.8515 C   0  0  2  0  0  0  0  0  0  0  0  0
    5.6721    2.8309    9.0664 C   0  0  1  0  0  0  0  0  0  0  0  0
    6.7609    3.8608    9.1442 C   0  0  2  0  0  0  0  0  0  0  0  0
    8.1439    3.2493    9.1321 C   0  0  1  0  0  0  0  0  0  0  0  0
    8.1489    2.4446    7.8479 C   0  0  1  0  0  0  0  0  0  0  0  0
    9.5003    1.6825    7.7742 C   0  0  0  0  0  0  0  0  0  0  0  0
    4.8049    0.7519    3.2560 C   0  0  1  0  0  0  0  0  0  0  0  0
    5.4131    2.1119    3.3984 C   0  0  1  0  0  0  0  0  0  0  0  0
    5.7281    2.3614    4.7300 C   0  0  2  0  0  0  0  0  0  0  0  0
    4.8739    1.9674    5.8576 C   0  0  1  0  0  0  0  0  0  0  0  0
    4.2738    0.6254    5.6857 C   0  0  2  0  0  0  0  0  0  0  0  0
    3.7257    0.5962    4.2713 C   0  0  0  0  0  0  0  0  0  0  0  0
    7.4719    2.9921    2.5949 C   0  0  1  0  0  0  0  0  0  0  0  0
    7.5348    4.3516    1.9622 C   0  0  1  0  0  0  0  0  0  0  0  0
    8.2221    4.2564    0.5895 C   0  0  2  0  0  0  0  0  0  0  0  0
    9.5268    3.4174    0.6078 C   0  0  1  0  0  0  0  0  0  0  0  0
    9.0853    2.0091    1.1138 C   0  0  1  0  0  0  0  0  0  0  0  0
   10.3332    0.9985    1.3039 C   0  0  0  0  0  0  0  0  0  0  0  0
    9.9027    1.0870    6.6141 N   0  0  0  0  0  0  0  0  0  0  0  0
    3.1557    0.4448    6.6966 N   0  0  0  0  0  0  0  0  0  0  0  0
    4.0232    0.7824    1.8934 N   0  0  0  0  0  0  0  0  0  0  0  0
    8.4510    5.6506   -0.0219 N   0  0  0  0  0  0  0  0  0  0  0  0
    7.2431    1.4466    7.7227 O   0  0  0  0  0  0  0  0  0  0  0  0
    6.5439    4.6204   10.4898 O   0  0  0  0  0  0  0  0  0  0  0  0
    9.1619    4.2881    9.1197 O   0  0  0  0  0  0  0  0  0  0  0  0
    5.4974    2.0805    6.9732 O   0  0  0  0  0  0  0  0  0  0  0  0
    6.7440    3.3261    5.0016 O   0  0  0  0  0  0  0  0  0  0  0  0
    6.3894    2.2022    2.6500 O   0  0  0  0  0  0  0  0  0  0  0  0
    8.4977    2.0728    2.3453 O   0  0  0  0  0  0  0  0  0  0  0  0
    6.1577    4.8565    1.7582 O   0  0  0  0  0  0  0  0  0  0  0  0
    9.9500    3.2301   -0.6772 O   0  0  0  0  0  0  0  0  0  0  0  0
    9.7873   -0.1639    1.9379 O   0  0  0  0  0  0  0  0  0  0  0  0
    4.2309    3.5044    9.0429 N   0  0  0  0  0  0  0  0  0  0  0  0
  1  2  1  0
  1 23  1  0
  1 26  1  6
  2  3  1  0
  2 33  1  6
  3  4  1  0
  3 24  1  1
  5  4  1  0
  4 25  1  6
  5  6  1  1
 23  5  1  0
  6 19  1  0
  8  7  1  0
  7 12  1  0
  7 21  1  6
  8  9  1  0
  8 28  1  6
  9 10  1  0
  9 27  1  6
 10 11  1  0
 10 26  1  1
 12 11  1  0
 11 20  1  1
 13 14  1  0
 13 28  1  6
 13 29  1  0
 14 15  1  0
 14 30  1  6
 15 16  1  0
 15 22  1  1
 16 17  1  0
 16 31  1  6
 17 18  1  1
 17 29  1  0
 18 32  1  0
M  CHG  5  19   1  20   1  21   1  22   1  33   1
M  END
$$$$
6np5_ligand
     RDKit          3D

 33 35  0  0  0  0  0  0  0  0999 V2000
    5.9097    1.8106    7.7311 C   0  0  2  0  0  0  0  0  0  0  0  0
    5.6659    2.7800    8.9511 C   0  0  1  0  0  0  0  0  0  0  0  0
    6.7580    3.8371    8.9407 C   0  0  2  0  0  0  0  0  0  0  0  0
    8.1463    3.2271    8.8862 C   0  0  1  0  0  0  0  0  0  0  0  0
    8.1209    2.3743    7.6309 C   0  0  1  0  0  0  0  0  0  0  0  0
    9.4747    1.6367    7.5057 C   0  0  0  0  0  0  0  0  0  0  0  0
    4.7642    0.7522    3.1478 C   0  0  1  0  0  0  0  0  0  0  0  0
    5.4470    2.0613    3.2973 C   0  0  1  0  0  0  0  0  0  0  0  0
    5.7983    2.2397    4.6176 C   0  0  2  0  0  0  0  0  0  0  0  0
    4.8929    1.9320    5.7311 C   0  0  1  0  0  0  0  0  0  0  0  0
    4.2455    0.6138    5.5652 C   0  0  2  0  0  0  0  0  0  0  0  0
    3.6573    0.6624    4.1624 C   0  0  0  0  0  0  0  0  0  0  0  0
    7.4858    2.9197    2.5111 C   0  0  1  0  0  0  0  0  0  0  0  0
    7.5511    4.3003    1.8547 C   0  0  1  0  0  0  0  0  0  0  0  0
    8.2498    4.1890    0.4756 C   0  0  2  0  0  0  0  0  0  0  0  0
    9.5090    3.2992    0.4797 C   0  0  1  0  0  0  0  0  0  0  0  0
    9.0463    1.8829    0.9996 C   0  0  1  0  0  0  0  0  0  0  0  0
   10.2615    0.8380    1.1516 C   0  0  0  0  0  0  0  0  0  0  0  0
    9.8806    1.0517    6.4188 N   0  0  0  0  0  0  0  0  0  0  0  0
    3.2139    0.3877    6.6032 N   0  0  0  0  0  0  0  0  0  0  0  0
    4.0451    0.8084    1.7722 N   0  0  0  0  0  0  0  0  0  0  0  0
    8.5194    5.5878   -0.1390 N   0  0  0  0  0  0  0  0  0  0  0  0
    7.2154    1.3617    7.5909 O   0  0  0  0  0  0  0  0  0  0  0  0
    6.5935    4.6345   10.2717 O   0  0  0  0  0  0  0  0  0  0  0  0
    9.1507    4.2690    8.8307 O   0  0  0  0  0  0  0  0  0  0  0  0
    5.4759    2.0841    6.8513 O   0  0  0  0  0  0  0  0  0  0  0  0
    6.8729    3.1443    4.8891 O   0  0  0  0  0  0  0  0  0  0  0  0
    6.4172    2.1061    2.5496 O   0  0  0  0  0  0  0  0  0  0  0  0
    8.4789    1.9937    2.2569 O   0  0  0  0  0  0  0  0  0  0  0  0
    6.1840    4.7958    1.6059 O   0  0  0  0  0  0  0  0  0  0  0  0
    9.8893    3.0859   -0.8327 O   0  0  0  0  0  0  0  0  0  0  0  0
    9.8026   -0.2368    1.9414 O   0  0  0  0  0  0  0  0  0  0  0  0
    4.2183    3.4381    8.9777 N   0  0  0  0  0  0  0  0  0  0  0  0
  1  2  1  0
  1 23  1  0
  1 26  1  6
  2  3  1  0
  2 33  1  6
  3  4  1  0
  3 24  1  1
  5  4  1  0
  4 25  1  6
  5  6  1  1
 23  5  1  0
  6 19  1  0
  8  7  1  0
  7 12  1  0
  7 21  1  6
  8  9  1  0
  8 28  1  6
  9 10  1  0
  9 27  1  6
 10 11  1  0
 10 26  1  1
 12 11  1  0
 11 20  1  1
 13 14  1  0
 13 28  1  6
 13 29  1  0
 14 15  1  0
 14 30  1  6
 15 16  1  0
 15 22  1  1
 16 17  1  0
 16 31  1  6
 17 18  1  1
 17 29  1  0
 18 32  1  0
M  CHG  5  19   1  20   1  21   1  22   1  33   1
M  END
$$$$
6np5_ligand
     RDKit          3D

 33 35  0  0  0  0  0  0  0  0999 V2000
    5.8464    1.7250    7.9568 C   0  0  2  0  0  0  0  0  0  0  0  0
    5.6189    2.7264    9.1873 C   0  0  1  0  0  0  0  0  0  0  0  0
    6.6767    3.7996    9.1470 C   0  0  2  0  0  0  0  0  0  0  0  0
    8.0749    3.2363    9.0206 C   0  0  1  0  0  0  0  0  0  0  0  0
    8.0346    2.3384    7.7992 C   0  0  1  0  0  0  0  0  0  0  0  0
    9.3907    1.5955    7.6658 C   0  0  0  0  0  0  0  0  0  0  0  0
    4.6922    0.7203    3.2873 C   0  0  1  0  0  0  0  0  0  0  0  0
    5.3297    2.0536    3.4531 C   0  0  1  0  0  0  0  0  0  0  0  0
    5.6163    2.2546    4.8123 C   0  0  2  0  0  0  0  0  0  0  0  0
    4.7695    1.8687    5.9253 C   0  0  1  0  0  0  0  0  0  0  0  0
    4.1498    0.5321    5.7245 C   0  0  2  0  0  0  0  0  0  0  0  0
    3.5787    0.5727    4.3117 C   0  0  0  0  0  0  0  0  0  0  0  0
    7.4059    2.8964    2.6637 C   0  0  1  0  0  0  0  0  0  0  0  0
    7.4966    4.3011    2.0222 C   0  0  1  0  0  0  0  0  0  0  0  0
    8.1562    4.1822    0.6070 C   0  0  2  0  0  0  0  0  0  0  0  0
    9.4148    3.2610    0.5992 C   0  0  1  0  0  0  0  0  0  0  0  0
    8.9352    1.8456    1.1125 C   0  0  1  0  0  0  0  0  0  0  0  0
   10.1478    0.7732    1.2397 C   0  0  0  0  0  0  0  0  0  0  0  0
    9.6452    0.8716    6.5437 N   0  0  0  0  0  0  0  0  0  0  0  0
    3.0923    0.2580    6.7391 N   0  0  0  0  0  0  0  0  0  0  0  0
    3.9763    0.7832    1.9048 N   0  0  0  0  0  0  0  0  0  0  0  0
    8.4277    5.5759   -0.0133 N   0  0  0  0  0  0  0  0  0  0  0  0
    7.1465    1.3120    7.7924 O   0  0  0  0  0  0  0  0  0  0  0  0
    6.5468    4.5864   10.4935 O   0  0  0  0  0  0  0  0  0  0  0  0
    9.0075    4.3289    8.8531 O   0  0  0  0  0  0  0  0  0  0  0  0
    5.3639    1.9715    7.0684 O   0  0  0  0  0  0  0  0  0  0  0  0
    6.6556    3.2368    5.0757 O   0  0  0  0  0  0  0  0  0  0  0  0
    6.3295    2.0840    2.7053 O   0  0  0  0  0  0  0  0  0  0  0  0
    8.3891    1.9694    2.3950 O   0  0  0  0  0  0  0  0  0  0  0  0
    6.1549    4.8422    1.8238 O   0  0  0  0  0  0  0  0  0  0  0  0
    9.8224    3.0635   -0.6994 O   0  0  0  0  0  0  0  0  0  0  0  0
    9.6304   -0.3253    1.9727 O   0  0  0  0  0  0  0  0  0  0  0  0
    4.1769    3.3706    9.2294 N   0  0  0  0  0  0  0  0  0  0  0  0
  1  2  1  0
  1 23  1  0
  1 26  1  6
  2  3  1  0
  2 33  1  6
  3  4  1  0
  3 24  1  1
  5  4  1  0
  4 25  1  6
  5  6  1  1
 23  5  1  0
  6 19  1  0
  8  7  1  0
  7 12  1  0
  7 21  1  6
  8  9  1  0
  8 28  1  6
  9 10  1  0
  9 27  1  6
 10 11  1  0
 10 26  1  1
 12 11  1  0
 11 20  1  1
 13 14  1  0
 13 28  1  6
 13 29  1  0
 14 15  1  0
 14 30  1  6
 15 16  1  0
 15 22  1  1
 16 17  1  0
 16 31  1  6
 17 18  1  1
 17 29  1  0
 18 32  1  0
M  CHG  5  19   1  20   1  21   1  22   1  33   1
M  END
$$$$
6np5_ligand
     RDKit          3D

 33 35  0  0  0  0  0  0  0  0999 V2000
    5.8192    1.7743    8.1535 C   0  0  2  0  0  0  0  0  0  0  0  0
    5.6000    2.8185    9.3751 C   0  0  1  0  0  0  0  0  0  0  0  0
    6.6686    3.8745    9.2947 C   0  0  2  0  0  0  0  0  0  0  0  0
    8.0705    3.3064    9.2243 C   0  0  1  0  0  0  0  0  0  0  0  0
    8.0524    2.3486    8.0308 C   0  0  1  0  0  0  0  0  0  0  0  0
    9.4106    1.5658    7.9569 C   0  0  0  0  0  0  0  0  0  0  0  0
    4.5452    0.7931    3.4786 C   0  0  1  0  0  0  0  0  0  0  0  0
    5.2405    2.1125    3.6219 C   0  0  1  0  0  0  0  0  0  0  0  0
    5.5257    2.3187    4.9634 C   0  0  2  0  0  0  0  0  0  0  0  0
    4.6909    1.9647    6.0987 C   0  0  1  0  0  0  0  0  0  0  0  0
    4.0113    0.6472    5.9174 C   0  0  2  0  0  0  0  0  0  0  0  0
    3.4191    0.6893    4.5164 C   0  0  0  0  0  0  0  0  0  0  0  0
    7.3454    2.9677    2.8988 C   0  0  1  0  0  0  0  0  0  0  0  0
    7.4427    4.3808    2.2250 C   0  0  1  0  0  0  0  0  0  0  0  0
    8.0676    4.2468    0.8077 C   0  0  2  0  0  0  0  0  0  0  0  0
    9.3149    3.3187    0.7622 C   0  0  1  0  0  0  0  0  0  0  0  0
    8.8748    1.9055    1.3362 C   0  0  1  0  0  0  0  0  0  0  0  0
   10.1117    0.8446    1.4178 C   0  0  0  0  0  0  0  0  0  0  0  0
    9.6497    0.8382    6.8226 N   0  0  0  0  0  0  0  0  0  0  0  0
    2.9647    0.4143    6.9749 N   0  0  0  0  0  0  0  0  0  0  0  0
    3.8536    0.8351    2.1063 N   0  0  0  0  0  0  0  0  0  0  0  0
    8.3368    5.6302    0.1769 N   0  0  0  0  0  0  0  0  0  0  0  0
    7.1095    1.3459    8.0229 O   0  0  0  0  0  0  0  0  0  0  0  0
    6.5433    4.7196   10.5804 O   0  0  0  0  0  0  0  0  0  0  0  0
    9.0227    4.3627    9.0402 O   0  0  0  0  0  0  0  0  0  0  0  0
    5.2994    2.0083    7.2484 O   0  0  0  0  0  0  0  0  0  0  0  0
    6.6130    3.2255    5.2075 O   0  0  0  0  0  0  0  0  0  0  0  0
    6.2693    2.1315    2.8807 O   0  0  0  0  0  0  0  0  0  0  0  0
    8.3509    2.0448    2.6465 O   0  0  0  0  0  0  0  0  0  0  0  0
    6.1023    4.9205    2.0383 O   0  0  0  0  0  0  0  0  0  0  0  0
    9.6724    3.0916   -0.5605 O   0  0  0  0  0  0  0  0  0  0  0  0
    9.5280   -0.3174    2.0458 O   0  0  0  0  0  0  0  0  0  0  0  0
    4.1541    3.4514    9.4237 N   0  0  0  0  0  0  0  0  0  0  0  0
  1  2  1  0
  1 23  1  0
  1 26  1  6
  2  3  1  0
  2 33  1  6
  3  4  1  0
  3 24  1  1
  5  4  1  0
  4 25  1  6
  5  6  1  1
 23  5  1  0
  6 19  1  0
  8  7  1  0
  7 12  1  0
  7 21  1  6
  8  9  1  0
  8 28  1  6
  9 10  1  0
  9 27  1  6
 10 11  1  0
 10 26  1  1
 12 11  1  0
 11 20  1  1
 13 14  1  0
 13 28  1  6
 13 29  1  0
 14 15  1  0
 14 30  1  6
 15 16  1  0
 15 22  1  1
 16 17  1  0
 16 31  1  6
 17 18  1  1
 17 29  1  0
 18 32  1  0
M  CHG  5  19   1  20   1  21   1  22   1  33   1
M  END
$$$$
6np5_ligand
     RDKit          3D

 33 35  0  0  0  0  0  0  0  0999 V2000
    5.9367    1.7019    8.1736 C   0  0  2  0  0  0  0  0  0  0  0  0
    5.7433    2.7606    9.3933 C   0  0  1  0  0  0  0  0  0  0  0  0
    6.7913    3.8290    9.2551 C   0  0  2  0  0  0  0  0  0  0  0  0
    8.2072    3.2637    9.1603 C   0  0  1  0  0  0  0  0  0  0  0  0
    8.1724    2.2512    8.0078 C   0  0  1  0  0  0  0  0  0  0  0  0
    9.5184    1.4530    7.9413 C   0  0  0  0  0  0  0  0  0  0  0  0
    4.6411    0.7231    3.4765 C   0  0  1  0  0  0  0  0  0  0  0  0
    5.3436    2.0254    3.6448 C   0  0  1  0  0  0  0  0  0  0  0  0
    5.5980    2.2549    4.9901 C   0  0  2  0  0  0  0  0  0  0  0  0
    4.7826    1.8935    6.1150 C   0  0  1  0  0  0  0  0  0  0  0  0
    4.0941    0.5887    5.9159 C   0  0  2  0  0  0  0  0  0  0  0  0
    3.5193    0.5985    4.5069 C   0  0  0  0  0  0  0  0  0  0  0  0
    7.4522    2.8537    2.9445 C   0  0  1  0  0  0  0  0  0  0  0  0
    7.5139    4.2855    2.2832 C   0  0  1  0  0  0  0  0  0  0  0  0
    8.1239    4.1969    0.8566 C   0  0  2  0  0  0  0  0  0  0  0  0
    9.3620    3.2829    0.7330 C   0  0  1  0  0  0  0  0  0  0  0  0
    8.9624    1.8503    1.3070 C   0  0  1  0  0  0  0  0  0  0  0  0
   10.2185    0.8289    1.3502 C   0  0  0  0  0  0  0  0  0  0  0  0
    9.7107    0.6759    6.8012 N   0  0  0  0  0  0  0  0  0  0  0  0
    3.0188    0.3619    6.9641 N   0  0  0  0  0  0  0  0  0  0  0  0
    3.9761    0.7753    2.0892 N   0  0  0  0  0  0  0  0  0  0  0  0
    8.3573    5.5724    0.2350 N   0  0  0  0  0  0  0  0  0  0  0  0
    7.2320    1.2532    8.0520 O   0  0  0  0  0  0  0  0  0  0  0  0
    6.7000    4.6996   10.5163 O   0  0  0  0  0  0  0  0  0  0  0  0
    9.1296    4.3205    8.9220 O   0  0  0  0  0  0  0  0  0  0  0  0
    5.4155    1.9262    7.2479 O   0  0  0  0  0  0  0  0  0  0  0  0
    6.6518    3.2323    5.2446 O   0  0  0  0  0  0  0  0  0  0  0  0
    6.3761    2.0083    2.9433 O   0  0  0  0  0  0  0  0  0  0  0  0
    8.4563    1.9527    2.6292 O   0  0  0  0  0  0  0  0  0  0  0  0
    6.1599    4.8057    2.1404 O   0  0  0  0  0  0  0  0  0  0  0  0
    9.6582    3.0720   -0.6174 O   0  0  0  0  0  0  0  0  0  0  0  0
    9.7210   -0.3088    1.9435 O   0  0  0  0  0  0  0  0  0  0  0  0
    4.2951    3.3671    9.5083 N   0  0  0  0  0  0  0  0  0  0  0  0
  1  2  1  0
  1 23  1  0
  1 26  1  6
  2  3  1  0
  2 33  1  6
  3  4  1  0
  3 24  1  1
  5  4  1  0
  4 25  1  6
  5  6  1  1
 23  5  1  0
  6 19  1  0
  8  7  1  0
  7 12  1  0
  7 21  1  6
  8  9  1  0
  8 28  1  6
  9 10  1  0
  9 27  1  6
 10 11  1  0
 10 26  1  1
 12 11  1  0
 11 20  1  1
 13 14  1  0
 13 28  1  6
 13 29  1  0
 14 15  1  0
 14 30  1  6
 15 16  1  0
 15 22  1  1
 16 17  1  0
 16 31  1  6
 17 18  1  1
 17 29  1  0
 18 32  1  0
M  CHG  5  19   1  20   1  21   1  22   1  33   1
M  END
$$$$
6np5_ligand
     RDKit          3D

 33 35  0  0  0  0  0  0  0  0999 V2000
    5.9324    1.5583    8.1517 C   0  0  2  0  0  0  0  0  0  0  0  0
    5.7508    2.6474    9.3414 C   0  0  1  0  0  0  0  0  0  0  0  0
    6.7710    3.7392    9.1538 C   0  0  2  0  0  0  0  0  0  0  0  0
    8.1900    3.2074    9.0313 C   0  0  1  0  0  0  0  0  0  0  0  0
    8.1515    2.1762    7.8856 C   0  0  1  0  0  0  0  0  0  0  0  0
    9.5143    1.4371    7.7551 C   0  0  0  0  0  0  0  0  0  0  0  0
    4.5874    0.6206    3.4236 C   0  0  1  0  0  0  0  0  0  0  0  0
    5.3129    1.9058    3.5807 C   0  0  1  0  0  0  0  0  0  0  0  0
    5.5848    2.1305    4.9163 C   0  0  2  0  0  0  0  0  0  0  0  0
    4.7965    1.7561    6.0829 C   0  0  1  0  0  0  0  0  0  0  0  0
    4.1167    0.4651    5.8828 C   0  0  2  0  0  0  0  0  0  0  0  0
    3.4737    0.5028    4.4860 C   0  0  0  0  0  0  0  0  0  0  0  0
    7.4463    2.7140    2.8513 C   0  0  1  0  0  0  0  0  0  0  0  0
    7.5467    4.1429    2.1713 C   0  0  1  0  0  0  0  0  0  0  0  0
    8.1543    4.0463    0.7596 C   0  0  2  0  0  0  0  0  0  0  0  0
    9.3815    3.1096    0.6317 C   0  0  1  0  0  0  0  0  0  0  0  0
    8.9669    1.6959    1.2243 C   0  0  1  0  0  0  0  0  0  0  0  0
   10.2264    0.6868    1.2778 C   0  0  0  0  0  0  0  0  0  0  0  0
    9.6227    0.5287    6.6946 N   0  0  0  0  0  0  0  0  0  0  0  0
    3.0807    0.2065    6.9668 N   0  0  0  0  0  0  0  0  0  0  0  0
    3.8892    0.6871    2.0335 N   0  0  0  0  0  0  0  0  0  0  0  0
    8.4017    5.3740    0.0963 N   0  0  0  0  0  0  0  0  0  0  0  0
    7.2449    1.1382    8.0036 O   0  0  0  0  0  0  0  0  0  0  0  0
    6.6940    4.6267   10.3922 O   0  0  0  0  0  0  0  0  0  0  0  0
    9.1054    4.2695    8.7812 O   0  0  0  0  0  0  0  0  0  0  0  0
    5.4336    1.7722    7.2148 O   0  0  0  0  0  0  0  0  0  0  0  0
    6.6176    3.1546    5.1374 O   0  0  0  0  0  0  0  0  0  0  0  0
    6.3571    1.8650    2.8566 O   0  0  0  0  0  0  0  0  0  0  0  0
    8.4544    1.8120    2.5331 O   0  0  0  0  0  0  0  0  0  0  0  0
    6.2112    4.6869    2.0250 O   0  0  0  0  0  0  0  0  0  0  0  0
    9.6611    2.8470   -0.7364 O   0  0  0  0  0  0  0  0  0  0  0  0
    9.7947   -0.4423    1.8042 O   0  0  0  0  0  0  0  0  0  0  0  0
    4.2901    3.2152    9.4836 N   0  0  0  0  0  0  0  0  0  0  0  0
  1  2  1  0
  1 23  1  0
  1 26  1  6
  2  3  1  0
  2 33  1  6
  3  4  1  0
  3 24  1  1
  5  4  1  0
  4 25  1  6
  5  6  1  1
 23  5  1  0
  6 19  1  0
  8  7  1  0
  7 12  1  0
  7 21  1  6
  8  9  1  0
  8 28  1  6
  9 10  1  0
  9 27  1  6
 10 11  1  0
 10 26  1  1
 12 11  1  0
 11 20  1  1
 13 14  1  0
 13 28  1  6
 13 29  1  0
 14 15  1  0
 14 30  1  6
 15 16  1  0
 15 22  1  1
 16 17  1  0
 16 31  1  6
 17 18  1  1
 17 29  1  0
 18 32  1  0
M  CHG  5  19   1  20   1  21   1  22   1  33   1
M  END
$$$$
6np5_ligand
     RDKit          3D

 33 35  0  0  0  0  0  0  0  0999 V2000
    5.8149    1.4828    8.2680 C   0  0  2  0  0  0  0  0  0  0  0  0
    5.6195    2.5792    9.4566 C   0  0  1  0  0  0  0  0  0  0  0  0
    6.6006    3.6902    9.2407 C   0  0  2  0  0  0  0  0  0  0  0  0
    8.0310    3.2011    9.1058 C   0  0  1  0  0  0  0  0  0  0  0  0
    8.0088    2.1497    7.9836 C   0  0  1  0  0  0  0  0  0  0  0  0
    9.4076    1.4716    7.8574 C   0  0  0  0  0  0  0  0  0  0  0  0
    4.5012    0.6007    3.5706 C   0  0  1  0  0  0  0  0  0  0  0  0
    5.2144    1.9089    3.7410 C   0  0  1  0  0  0  0  0  0  0  0  0
    5.5230    2.1026    5.0794 C   0  0  2  0  0  0  0  0  0  0  0  0
    4.7010    1.7171    6.2157 C   0  0  1  0  0  0  0  0  0  0  0  0
    4.0213    0.4191    6.0055 C   0  0  2  0  0  0  0  0  0  0  0  0
    3.3808    0.4511    4.6266 C   0  0  0  0  0  0  0  0  0  0  0  0
    7.3462    2.7368    2.9763 C   0  0  1  0  0  0  0  0  0  0  0  0
    7.4671    4.1522    2.2743 C   0  0  1  0  0  0  0  0  0  0  0  0
    8.1001    4.0213    0.8624 C   0  0  2  0  0  0  0  0  0  0  0  0
    9.2914    3.0707    0.7561 C   0  0  1  0  0  0  0  0  0  0  0  0
    8.8495    1.6558    1.3643 C   0  0  1  0  0  0  0  0  0  0  0  0
   10.0954    0.6187    1.3934 C   0  0  0  0  0  0  0  0  0  0  0  0
    9.5963    0.6325    6.7612 N   0  0  0  0  0  0  0  0  0  0  0  0
    2.9626    0.1672    7.0743 N   0  0  0  0  0  0  0  0  0  0  0  0
    3.7985    0.6641    2.2015 N   0  0  0  0  0  0  0  0  0  0  0  0
    8.3578    5.3458    0.1999 N   0  0  0  0  0  0  0  0  0  0  0  0
    7.1260    1.0954    8.1517 O   0  0  0  0  0  0  0  0  0  0  0  0
    6.5091    4.5894   10.4729 O   0  0  0  0  0  0  0  0  0  0  0  0
    8.9037    4.2896    8.8270 O   0  0  0  0  0  0  0  0  0  0  0  0
    5.3066    1.6846    7.3475 O   0  0  0  0  0  0  0  0  0  0  0  0
    6.5327    3.1103    5.3131 O   0  0  0  0  0  0  0  0  0  0  0  0
    6.2561    1.9085    2.9841 O   0  0  0  0  0  0  0  0  0  0  0  0
    8.3499    1.8185    2.6737 O   0  0  0  0  0  0  0  0  0  0  0  0
    6.1287    4.7139    2.1005 O   0  0  0  0  0  0  0  0  0  0  0  0
    9.5788    2.7917   -0.6197 O   0  0  0  0  0  0  0  0  0  0  0  0
    9.7443   -0.4609    1.9604 O   0  0  0  0  0  0  0  0  0  0  0  0
    4.1362    3.1009    9.6080 N   0  0  0  0  0  0  0  0  0  0  0  0
  1  2  1  0
  1 23  1  0
  1 26  1  6
  2  3  1  0
  2 33  1  6
  3  4  1  0
  3 24  1  1
  5  4  1  0
  4 25  1  6
  5  6  1  1
 23  5  1  0
  6 19  1  0
  8  7  1  0
  7 12  1  0
  7 21  1  6
  8  9  1  0
  8 28  1  6
  9 10  1  0
  9 27  1  6
 10 11  1  0
 10 26  1  1
 12 11  1  0
 11 20  1  1
 13 14  1  0
 13 28  1  6
 13 29  1  0
 14 15  1  0
 14 30  1  6
 15 16  1  0
 15 22  1  1
 16 17  1  0
 16 31  1  6
 17 18  1  1
 17 29  1  0
 18 32  1  0
M  CHG  5  19   1  20   1  21   1  22   1  33   1
M  END
$$$$
6np5_ligand
     RDKit          3D

 33 35  0  0  0  0  0  0  0  0999 V2000
  115.4051  -15.7199   -9.2138 C   0  0  2  0  0  0  0  0  0  0  0  0
  116.3426  -14.4860   -9.7154 C   0  0  1  0  0  0  0  0  0  0  0  0
  115.5008  -13.5548  -10.5327 C   0  0  2  0  0  0  0  0  0  0  0  0
  114.7724  -14.2534  -11.6663 C   0  0  1  0  0  0  0  0  0  0  0  0
  113.9900  -15.4050  -11.0129 C   0  0  1  0  0  0  0  0  0  0  0  0
  113.3152  -16.2841  -12.1104 C   0  0  0  0  0  0  0  0  0  0  0  0
  112.1464  -16.9046   -5.6717 C   0  0  1  0  0  0  0  0  0  0  0  0
  111.7342  -15.7001   -6.4643 C   0  0  1  0  0  0  0  0  0  0  0  0
  112.7039  -15.4099   -7.4127 C   0  0  2  0  0  0  0  0  0  0  0  0
  114.1416  -15.5512   -7.2434 C   0  0  1  0  0  0  0  0  0  0  0  0
  114.5016  -16.7547   -6.4606 C   0  0  2  0  0  0  0  0  0  0  0  0
  113.6209  -16.7801   -5.2211 C   0  0  0  0  0  0  0  0  0  0  0  0
  109.9099  -15.2694   -7.9813 C   0  0  1  0  0  0  0  0  0  0  0  0
  109.0169  -13.9687   -7.8342 C   0  0  1  0  0  0  0  0  0  0  0  0
  107.5180  -14.3384   -7.6666 C   0  0  2  0  0  0  0  0  0  0  0  0
  107.0052  -15.4541   -8.5756 C   0  0  1  0  0  0  0  0  0  0  0  0
  107.9729  -16.7188   -8.3987 C   0  0  1  0  0  0  0  0  0  0  0  0
  107.5642  -17.9128   -9.4164 C   0  0  0  0  0  0  0  0  0  0  0  0
  112.4184  -17.2539  -11.6671 N   0  0  0  0  0  0  0  0  0  0  0  0
  115.9740  -16.7382   -6.0625 N   0  0  0  0  0  0  0  0  0  0  0  0
  111.2991  -16.8892   -4.3856 N   0  0  0  0  0  0  0  0  0  0  0  0
  106.6075  -13.1424   -7.6510 N   0  0  0  0  0  0  0  0  0  0  0  0
  114.7338  -16.2994  -10.2608 O   0  0  0  0  0  0  0  0  0  0  0  0
  116.4577  -12.5250  -11.1320 O   0  0  0  0  0  0  0  0  0  0  0  0
  113.9327  -13.3357  -12.3568 O   0  0  0  0  0  0  0  0  0  0  0  0
  114.8268  -15.5478   -8.3293 O   0  0  0  0  0  0  0  0  0  0  0  0
  112.2516  -14.5364   -8.4720 O   0  0  0  0  0  0  0  0  0  0  0  0
  110.5794  -15.9291   -6.9858 O   0  0  0  0  0  0  0  0  0  0  0  0
  109.3139  -16.3477   -8.6326 O   0  0  0  0  0  0  0  0  0  0  0  0
  109.4235  -13.2449   -6.6310 O   0  0  0  0  0  0  0  0  0  0  0  0
  105.7288  -15.9167   -8.1172 O   0  0  0  0  0  0  0  0  0  0  0  0
  108.3978  -18.8649   -9.3208 O   0  0  0  0  0  0  0  0  0  0  0  0
  117.1055  -13.7462   -8.5467 N   0  0  0  0  0  0  0  0  0  0  0  0
  1  2  1  0
  1 23  1  0
  1 26  1  1
  2  3  1  0
  2 33  1  1
  3  4  1  0
  3 24  1  6
  5  4  1  0
  4 25  1  1
  5  6  1  6
 23  5  1  0
  6 19  1  0
  8  7  1  0
  7 12  1  0
  7 21  1  1
  8  9  1  0
  8 28  1  6
  9 10  1  0
  9 27  1  1
 10 11  1  0
 10 26  1  6
 12 11  1  0
 11 20  1  1
 13 14  1  0
 13 28  1  1
 13 29  1  0
 14 15  1  0
 14 30  1  1
 15 16  1  0
 15 22  1  6
 16 17  1  0
 16 31  1  1
 17 18  1  6
 17 29  1  0
 18 32  1  0
M  CHG  5  19   1  20   1  21   1  22   1  33   1
M  END
$$$$
