3_0


 20 22  0  0  0  0  0  0  0  0999 V2000
   11.0898    7.8169   -7.5108 C   0  0  0  0  0  0  0  0  0  0  0  0
   10.1337    7.0785   -6.7905 C   0  0  0  0  0  0  0  0  0  0  0  0
    9.2090    6.2373   -7.4332 C   0  0  0  0  0  0  0  0  0  0  0  0
    9.2587    6.1467   -8.8300 C   0  0  0  0  0  0  0  0  0  0  0  0
   10.1984    6.8832   -9.4238 C   0  0  0  0  0  0  0  0  0  0  0  0
   10.2661    6.8116  -10.7808 C   0  0  0  0  0  0  0  0  0  0  0  0
   11.2945    7.6517  -11.0733 N   0  0  0  0  0  0  0  0  0  0  0  0
   11.7792    8.1694   -9.9268 O   0  0  0  0  0  0  0  0  0  0  0  0
   11.1316    7.7202   -8.9021 C   0  0  0  0  0  0  0  0  0  0  0  0
    9.2006    5.8792  -11.1324 C   0  0  0  0  0  0  0  0  0  0  0  0
    8.9073    5.5221  -12.2869 O   0  0  0  0  0  0  0  0  0  0  0  0
    8.5759    5.4716   -9.8728 N   0  0  0  0  0  0  0  0  0  0  0  0
    7.7882    4.8199   -9.7358 H   0  0  0  0  0  0  0  0  0  0  0  0
   12.0040    8.6444   -6.9204 O   0  0  0  0  0  0  0  0  0  0  0  0
   11.7389    9.9396   -6.4538 C   0  0  0  0  0  0  0  0  0  0  0  0
   11.4679    9.9061   -4.9806 C   0  0  0  0  0  0  0  0  0  0  0  0
   12.5134    9.2021   -4.1741 C   0  0  0  0  0  0  0  0  0  0  0  0
   12.1555    9.1580   -2.7239 C   0  0  0  0  0  0  0  0  0  0  0  0
   11.9993    6.7036   -3.1869 C   0  0  0  0  0  0  0  0  0  0  0  0
   12.3307    7.7678   -2.1504 C   0  0  0  0  0  0  0  0  0  0  0  0
 19 20  1  0  0  0
 20 18  1  0  0  0
 18 17  1  0  0  0
 17 16  1  0  0  0
 16 15  1  0  0  0
 15 14  1  0  0  0
 14  1  1  0  0  0
  1  2  2  0  0  0
  2  3  1  0  0  0
  3  4  2  0  0  0
  4  5  1  0  0  0
  5  6  1  0  0  0
  6  7  2  0  0  0
  7  8  1  0  0  0
  8  9  1  0  0  0
  6 10  1  0  0  0
 10 11  2  0  0  0
 10 12  1  0  0  0
  9  1  1  0  0  0
 12  4  1  0  0  0
  9  5  2  0  0  0
 12 13  1  0  0  0
M  END
> <minimizedAffinity>
-7.55197

$$$$
3_0


 20 22  0  0  0  0  0  0  0  0999 V2000
    9.8621    6.3072  -10.6501 C   0  0  0  0  0  0  0  0  0  0  0  0
    9.1015    5.4285   -9.8578 C   0  0  0  0  0  0  0  0  0  0  0  0
    9.0830    5.5228   -8.4555 C   0  0  0  0  0  0  0  0  0  0  0  0
    9.8502    6.5267   -7.8511 C   0  0  0  0  0  0  0  0  0  0  0  0
   10.5366    7.3098   -8.6840 C   0  0  0  0  0  0  0  0  0  0  0  0
   11.2897    8.2926   -8.1199 C   0  0  0  0  0  0  0  0  0  0  0  0
   11.8496    8.8977   -9.2012 N   0  0  0  0  0  0  0  0  0  0  0  0
   11.4259    8.2776  -10.3207 O   0  0  0  0  0  0  0  0  0  0  0  0
   10.6234    7.3041  -10.0390 C   0  0  0  0  0  0  0  0  0  0  0  0
   11.0600    8.1272   -6.6888 C   0  0  0  0  0  0  0  0  0  0  0  0
   11.5630    8.8272   -5.7925 O   0  0  0  0  0  0  0  0  0  0  0  0
   10.1407    6.9970   -6.5457 N   0  0  0  0  0  0  0  0  0  0  0  0
    9.7584    6.5948   -5.6762 H   0  0  0  0  0  0  0  0  0  0  0  0
    9.9047    6.2456  -12.0152 O   0  0  0  0  0  0  0  0  0  0  0  0
    9.6747    5.0931  -12.7798 C   0  0  0  0  0  0  0  0  0  0  0  0
    8.3955    5.2359  -13.5465 C   0  0  0  0  0  0  0  0  0  0  0  0
    7.4378    4.0997  -13.3710 C   0  0  0  0  0  0  0  0  0  0  0  0
    6.1646    4.5448  -12.7275 C   0  0  0  0  0  0  0  0  0  0  0  0
    5.5973    2.1292  -13.0526 C   0  0  0  0  0  0  0  0  0  0  0  0
    5.3675    3.3701  -12.2016 C   0  0  0  0  0  0  0  0  0  0  0  0
 19 20  1  0  0  0
 20 18  1  0  0  0
 18 17  1  0  0  0
 17 16  1  0  0  0
 16 15  1  0  0  0
 15 14  1  0  0  0
 14  1  1  0  0  0
  1  2  2  0  0  0
  2  3  1  0  0  0
  3  4  2  0  0  0
  4  5  1  0  0  0
  5  6  1  0  0  0
  6  7  2  0  0  0
  7  8  1  0  0  0
  8  9  1  0  0  0
  6 10  1  0  0  0
 10 11  2  0  0  0
 10 12  1  0  0  0
  9  1  1  0  0  0
 12  4  1  0  0  0
  9  5  2  0  0  0
 12 13  1  0  0  0
M  END
> <minimizedAffinity>
-7.10199

$$$$
3_0


 20 22  0  0  0  0  0  0  0  0999 V2000
    9.0984    5.9258  -10.6875 C   0  0  0  0  0  0  0  0  0  0  0  0
    9.8544    6.4350  -11.7587 C   0  0  0  0  0  0  0  0  0  0  0  0
   10.9341    7.3112  -11.5532 C   0  0  0  0  0  0  0  0  0  0  0  0
   11.2485    7.6741  -10.2375 C   0  0  0  0  0  0  0  0  0  0  0  0
   10.4759    7.1409   -9.2906 C   0  0  0  0  0  0  0  0  0  0  0  0
   10.7622    7.4791   -8.0041 C   0  0  0  0  0  0  0  0  0  0  0  0
    9.8235    6.7931   -7.2990 N   0  0  0  0  0  0  0  0  0  0  0  0
    9.0469    6.1020   -8.1572 O   0  0  0  0  0  0  0  0  0  0  0  0
    9.4192    6.2931   -9.3802 C   0  0  0  0  0  0  0  0  0  0  0  0
   11.9052    8.3772   -8.1278 C   0  0  0  0  0  0  0  0  0  0  0  0
   12.4951    8.9275   -7.1816 O   0  0  0  0  0  0  0  0  0  0  0  0
   12.1938    8.4839   -9.5590 N   0  0  0  0  0  0  0  0  0  0  0  0
   12.9354    9.0342  -10.0185 H   0  0  0  0  0  0  0  0  0  0  0  0
    8.0425    5.0724  -10.8490 O   0  0  0  0  0  0  0  0  0  0  0  0
    7.6042    4.5519  -12.0748 C   0  0  0  0  0  0  0  0  0  0  0  0
    6.2169    5.0359  -12.3682 C   0  0  0  0  0  0  0  0  0  0  0  0
    5.3001    3.9907  -12.9216 C   0  0  0  0  0  0  0  0  0  0  0  0
    5.7169    2.6161  -12.5094 C   0  0  0  0  0  0  0  0  0  0  0  0
    4.6725    0.6439  -13.6419 C   0  0  0  0  0  0  0  0  0  0  0  0
    5.7882    1.6780  -13.6955 C   0  0  0  0  0  0  0  0  0  0  0  0
 19 20  1  0  0  0
 20 18  1  0  0  0
 18 17  1  0  0  0
 17 16  1  0  0  0
 16 15  1  0  0  0
 15 14  1  0  0  0
 14  1  1  0  0  0
  1  2  2  0  0  0
  2  3  1  0  0  0
  3  4  2  0  0  0
  4  5  1  0  0  0
  5  6  1  0  0  0
  6  7  2  0  0  0
  7  8  1  0  0  0
  8  9  1  0  0  0
  6 10  1  0  0  0
 10 11  2  0  0  0
 10 12  1  0  0  0
  9  1  1  0  0  0
 12  4  1  0  0  0
  9  5  2  0  0  0
 12 13  1  0  0  0
M  END
> <minimizedAffinity>
-7.09335

$$$$
3_0


 20 22  0  0  0  0  0  0  0  0999 V2000
    8.8812    5.8138  -12.4494 C   0  0  0  0  0  0  0  0  0  0  0  0
    9.8203    5.1673  -13.2732 C   0  0  0  0  0  0  0  0  0  0  0  0
    9.5295    3.9516  -13.9159 C   0  0  0  0  0  0  0  0  0  0  0  0
    8.2638    3.3858  -13.7168 C   0  0  0  0  0  0  0  0  0  0  0  0
    7.4431    4.0715  -12.9204 C   0  0  0  0  0  0  0  0  0  0  0  0
    6.2075    3.5414  -12.7119 C   0  0  0  0  0  0  0  0  0  0  0  0
    5.6291    4.4494  -11.8812 N   0  0  0  0  0  0  0  0  0  0  0  0
    6.5063    5.4436  -11.6374 O   0  0  0  0  0  0  0  0  0  0  0  0
    7.6229    5.2425  -12.2570 C   0  0  0  0  0  0  0  0  0  0  0  0
    6.2206    2.3120  -13.4973 C   0  0  0  0  0  0  0  0  0  0  0  0
    5.2774    1.5072  -13.5919 O   0  0  0  0  0  0  0  0  0  0  0  0
    7.5404    2.2375  -14.1262 N   0  0  0  0  0  0  0  0  0  0  0  0
    7.9055    1.5037  -14.7524 H   0  0  0  0  0  0  0  0  0  0  0  0
    9.1285    6.9960  -11.8086 O   0  0  0  0  0  0  0  0  0  0  0  0
   10.3963    7.4618  -11.4330 C   0  0  0  0  0  0  0  0  0  0  0  0
   10.5223    7.4514   -9.9400 C   0  0  0  0  0  0  0  0  0  0  0  0
   11.3119    8.5909   -9.3769 C   0  0  0  0  0  0  0  0  0  0  0  0
   12.1892    8.1513   -8.2498 C   0  0  0  0  0  0  0  0  0  0  0  0
   10.6487    9.3842   -6.7104 C   0  0  0  0  0  0  0  0  0  0  0  0
   12.0993    9.0998   -7.0732 C   0  0  0  0  0  0  0  0  0  0  0  0
 19 20  1  0  0  0
 20 18  1  0  0  0
 18 17  1  0  0  0
 17 16  1  0  0  0
 16 15  1  0  0  0
 15 14  1  0  0  0
 14  1  1  0  0  0
  1  2  2  0  0  0
  2  3  1  0  0  0
  3  4  2  0  0  0
  4  5  1  0  0  0
  5  6  1  0  0  0
  6  7  2  0  0  0
  7  8  1  0  0  0
  8  9  1  0  0  0
  6 10  1  0  0  0
 10 11  2  0  0  0
 10 12  1  0  0  0
  9  1  1  0  0  0
 12  4  1  0  0  0
  9  5  2  0  0  0
 12 13  1  0  0  0
M  END
> <minimizedAffinity>
-6.62636

$$$$
3_0


 20 22  0  0  0  0  0  0  0  0999 V2000
   10.2012    4.4169  -14.5694 C   0  0  0  0  0  0  0  0  0  0  0  0
   11.2092    4.6492  -15.5225 C   0  0  0  0  0  0  0  0  0  0  0  0
   11.6791    3.6292  -16.3677 C   0  0  0  0  0  0  0  0  0  0  0  0
   11.1142    2.3539  -16.2406 C   0  0  0  0  0  0  0  0  0  0  0  0
   10.1665    2.2317  -15.3106 C   0  0  0  0  0  0  0  0  0  0  0  0
    9.6028    1.0016  -15.1686 C   0  0  0  0  0  0  0  0  0  0  0  0
    8.7003    1.1999  -14.1710 N   0  0  0  0  0  0  0  0  0  0  0  0
    8.7593    2.4869  -13.7742 O   0  0  0  0  0  0  0  0  0  0  0  0
    9.6444    3.1431  -14.4502 C   0  0  0  0  0  0  0  0  0  0  0  0
   10.2908    0.1877  -16.1648 C   0  0  0  0  0  0  0  0  0  0  0  0
   10.0815   -1.0192  -16.3787 O   0  0  0  0  0  0  0  0  0  0  0  0
   11.2470    1.0726  -16.8325 N   0  0  0  0  0  0  0  0  0  0  0  0
   11.9054    0.8399  -17.5916 H   0  0  0  0  0  0  0  0  0  0  0  0
    9.7196    5.3836  -13.7311 O   0  0  0  0  0  0  0  0  0  0  0  0
   10.3079    5.7673  -12.5177 C   0  0  0  0  0  0  0  0  0  0  0  0
    9.2435    6.0791  -11.5104 C   0  0  0  0  0  0  0  0  0  0  0  0
    8.0883    5.1281  -11.5150 C   0  0  0  0  0  0  0  0  0  0  0  0
    6.8480    5.7683  -12.0489 C   0  0  0  0  0  0  0  0  0  0  0  0
    5.6048    3.5987  -12.1499 C   0  0  0  0  0  0  0  0  0  0  0  0
    6.0689    4.8183  -12.9336 C   0  0  0  0  0  0  0  0  0  0  0  0
 19 20  1  0  0  0
 20 18  1  0  0  0
 18 17  1  0  0  0
 17 16  1  0  0  0
 16 15  1  0  0  0
 15 14  1  0  0  0
 14  1  1  0  0  0
  1  2  2  0  0  0
  2  3  1  0  0  0
  3  4  2  0  0  0
  4  5  1  0  0  0
  5  6  1  0  0  0
  6  7  2  0  0  0
  7  8  1  0  0  0
  8  9  1  0  0  0
  6 10  1  0  0  0
 10 11  2  0  0  0
 10 12  1  0  0  0
  9  1  1  0  0  0
 12  4  1  0  0  0
  9  5  2  0  0  0
 12 13  1  0  0  0
M  END
> <minimizedAffinity>
-6.08408

$$$$
3_0


 20 22  0  0  0  0  0  0  0  0999 V2000
    9.7351    5.0164  -13.3511 C   0  0  0  0  0  0  0  0  0  0  0  0
    8.6660    4.8034  -12.4623 C   0  0  0  0  0  0  0  0  0  0  0  0
    8.5614    5.5031  -11.2477 C   0  0  0  0  0  0  0  0  0  0  0  0
    9.5602    6.4333  -10.9337 C   0  0  0  0  0  0  0  0  0  0  0  0
   10.5317    6.5655  -11.8374 C   0  0  0  0  0  0  0  0  0  0  0  0
   11.5137    7.4637  -11.5542 C   0  0  0  0  0  0  0  0  0  0  0  0
   12.3290    7.3666  -12.6380 N   0  0  0  0  0  0  0  0  0  0  0  0
   11.8220    6.4524  -13.4892 O   0  0  0  0  0  0  0  0  0  0  0  0
   10.7254    5.9452  -13.0296 C   0  0  0  0  0  0  0  0  0  0  0  0
   11.1232    8.0070  -10.2577 C   0  0  0  0  0  0  0  0  0  0  0  0
   11.7497    8.8717   -9.6205 O   0  0  0  0  0  0  0  0  0  0  0  0
    9.8773    7.3343   -9.8861 N   0  0  0  0  0  0  0  0  0  0  0  0
    9.3131    7.4675   -9.0329 H   0  0  0  0  0  0  0  0  0  0  0  0
    9.8698    4.3550  -14.5401 O   0  0  0  0  0  0  0  0  0  0  0  0
    9.8064    4.9504  -15.8078 C   0  0  0  0  0  0  0  0  0  0  0  0
   11.0819    4.7011  -16.5532 C   0  0  0  0  0  0  0  0  0  0  0  0
   11.8968    3.5631  -16.0239 C   0  0  0  0  0  0  0  0  0  0  0  0
   11.8389    2.3748  -16.9282 C   0  0  0  0  0  0  0  0  0  0  0  0
    9.6076    1.2795  -17.2190 C   0  0  0  0  0  0  0  0  0  0  0  0
   10.8898    1.3202  -16.3997 C   0  0  0  0  0  0  0  0  0  0  0  0
 19 20  1  0  0  0
 20 18  1  0  0  0
 18 17  1  0  0  0
 17 16  1  0  0  0
 16 15  1  0  0  0
 15 14  1  0  0  0
 14  1  1  0  0  0
  1  2  2  0  0  0
  2  3  1  0  0  0
  3  4  2  0  0  0
  4  5  1  0  0  0
  5  6  1  0  0  0
  6  7  2  0  0  0
  7  8  1  0  0  0
  8  9  1  0  0  0
  6 10  1  0  0  0
 10 11  2  0  0  0
 10 12  1  0  0  0
  9  1  1  0  0  0
 12  4  1  0  0  0
  9  5  2  0  0  0
 12 13  1  0  0  0
M  END
> <minimizedAffinity>
-5.76857

$$$$
3_0


 20 22  0  0  0  0  0  0  0  0999 V2000
    9.6308    4.6869  -12.7424 C   0  0  0  0  0  0  0  0  0  0  0  0
   10.6241    5.6595  -12.5286 C   0  0  0  0  0  0  0  0  0  0  0  0
   10.3027    7.0058  -12.2837 C   0  0  0  0  0  0  0  0  0  0  0  0
    8.9497    7.3669  -12.2561 C   0  0  0  0  0  0  0  0  0  0  0  0
    8.0827    6.3766  -12.4693 C   0  0  0  0  0  0  0  0  0  0  0  0
    6.7621    6.7032  -12.4473 C   0  0  0  0  0  0  0  0  0  0  0  0
    6.1553    5.5110  -12.6910 N   0  0  0  0  0  0  0  0  0  0  0  0
    7.0989    4.5602  -12.8424 O   0  0  0  0  0  0  0  0  0  0  0  0
    8.2856    5.0563  -12.7130 C   0  0  0  0  0  0  0  0  0  0  0  0
    6.7640    8.1367  -12.1761 C   0  0  0  0  0  0  0  0  0  0  0  0
    5.7521    8.8517  -12.0713 O   0  0  0  0  0  0  0  0  0  0  0  0
    8.1683    8.5332  -12.0590 N   0  0  0  0  0  0  0  0  0  0  0  0
    8.5498    9.4727  -11.8698 H   0  0  0  0  0  0  0  0  0  0  0  0
    9.9055    3.3695  -12.9833 O   0  0  0  0  0  0  0  0  0  0  0  0
   10.3689    2.8500  -14.2003 C   0  0  0  0  0  0  0  0  0  0  0  0
    9.2136    2.3618  -15.0199 C   0  0  0  0  0  0  0  0  0  0  0  0
    8.1289    1.7002  -14.2296 C   0  0  0  0  0  0  0  0  0  0  0  0
    8.2281    0.2105  -14.2948 C   0  0  0  0  0  0  0  0  0  0  0  0
    5.9480   -0.7951  -14.5239 C   0  0  0  0  0  0  0  0  0  0  0  0
    7.0806   -0.4553  -13.5655 C   0  0  0  0  0  0  0  0  0  0  0  0
 19 20  1  0  0  0
 20 18  1  0  0  0
 18 17  1  0  0  0
 17 16  1  0  0  0
 16 15  1  0  0  0
 15 14  1  0  0  0
 14  1  1  0  0  0
  1  2  2  0  0  0
  2  3  1  0  0  0
  3  4  2  0  0  0
  4  5  1  0  0  0
  5  6  1  0  0  0
  6  7  2  0  0  0
  7  8  1  0  0  0
  8  9  1  0  0  0
  6 10  1  0  0  0
 10 11  2  0  0  0
 10 12  1  0  0  0
  9  1  1  0  0  0
 12  4  1  0  0  0
  9  5  2  0  0  0
 12 13  1  0  0  0
M  END
> <minimizedAffinity>
-5.63313

$$$$
3_0


 20 22  0  0  0  0  0  0  0  0999 V2000
   10.7879    4.4229  -13.6862 C   0  0  0  0  0  0  0  0  0  0  0  0
   10.6699    5.6264  -12.9679 C   0  0  0  0  0  0  0  0  0  0  0  0
   11.3657    6.7873  -13.3474 C   0  0  0  0  0  0  0  0  0  0  0  0
   12.1938    6.7216  -14.4750 C   0  0  0  0  0  0  0  0  0  0  0  0
   12.2408    5.5392  -15.0895 C   0  0  0  0  0  0  0  0  0  0  0  0
   13.0390    5.4510  -16.1878 C   0  0  0  0  0  0  0  0  0  0  0  0
   12.8743    4.1575  -16.5736 N   0  0  0  0  0  0  0  0  0  0  0  0
   12.0200    3.5509  -15.7254 O   0  0  0  0  0  0  0  0  0  0  0  0
   11.6154    4.3672  -14.8083 C   0  0  0  0  0  0  0  0  0  0  0  0
   13.6054    6.7895  -16.3132 C   0  0  0  0  0  0  0  0  0  0  0  0
   14.4010    7.1556  -17.1960 O   0  0  0  0  0  0  0  0  0  0  0  0
   13.0512    7.5776  -15.2110 N   0  0  0  0  0  0  0  0  0  0  0  0
   13.2299    8.5681  -14.9853 H   0  0  0  0  0  0  0  0  0  0  0  0
   10.1273    3.2750  -13.3471 O   0  0  0  0  0  0  0  0  0  0  0  0
    8.8049    2.9697  -13.6986 C   0  0  0  0  0  0  0  0  0  0  0  0
    8.7558    1.6480  -14.4023 C   0  0  0  0  0  0  0  0  0  0  0  0
    7.4967    0.8718  -14.1760 C   0  0  0  0  0  0  0  0  0  0  0  0
    6.2876    1.7469  -14.2497 C   0  0  0  0  0  0  0  0  0  0  0  0
    5.3803    3.0396  -12.3084 C   0  0  0  0  0  0  0  0  0  0  0  0
    5.4713    1.6751  -12.9767 C   0  0  0  0  0  0  0  0  0  0  0  0
 19 20  1  0  0  0
 20 18  1  0  0  0
 18 17  1  0  0  0
 17 16  1  0  0  0
 16 15  1  0  0  0
 15 14  1  0  0  0
 14  1  1  0  0  0
  1  2  2  0  0  0
  2  3  1  0  0  0
  3  4  2  0  0  0
  4  5  1  0  0  0
  5  6  1  0  0  0
  6  7  2  0  0  0
  7  8  1  0  0  0
  8  9  1  0  0  0
  6 10  1  0  0  0
 10 11  2  0  0  0
 10 12  1  0  0  0
  9  1  1  0  0  0
 12  4  1  0  0  0
  9  5  2  0  0  0
 12 13  1  0  0  0
M  END
> <minimizedAffinity>
-5.48476

$$$$
3_0


 20 22  0  0  0  0  0  0  0  0999 V2000
   10.4699    5.5052  -13.7889 C   0  0  0  0  0  0  0  0  0  0  0  0
   11.6048    6.3181  -13.9607 C   0  0  0  0  0  0  0  0  0  0  0  0
   12.0740    7.1613  -12.9387 C   0  0  0  0  0  0  0  0  0  0  0  0
   11.3772    7.1768  -11.7237 C   0  0  0  0  0  0  0  0  0  0  0  0
   10.3156    6.3730  -11.6561 C   0  0  0  0  0  0  0  0  0  0  0  0
    9.6225    6.3710  -10.4853 C   0  0  0  0  0  0  0  0  0  0  0  0
    8.6280    5.4761  -10.7283 N   0  0  0  0  0  0  0  0  0  0  0  0
    8.7619    4.9997  -11.9823 O   0  0  0  0  0  0  0  0  0  0  0  0
    9.7823    5.5274  -12.5750 C   0  0  0  0  0  0  0  0  0  0  0  0
   10.3456    7.3260   -9.6526 C   0  0  0  0  0  0  0  0  0  0  0  0
   10.0485    7.6339   -8.4851 O   0  0  0  0  0  0  0  0  0  0  0  0
   11.4572    7.8236  -10.4648 N   0  0  0  0  0  0  0  0  0  0  0  0
   12.1781    8.5128  -10.2015 H   0  0  0  0  0  0  0  0  0  0  0  0
    9.9848    4.6735  -14.7595 O   0  0  0  0  0  0  0  0  0  0  0  0
   10.5696    4.4723  -16.0177 C   0  0  0  0  0  0  0  0  0  0  0  0
   10.1591    3.1391  -16.5643 C   0  0  0  0  0  0  0  0  0  0  0  0
   10.9664    1.9860  -16.0566 C   0  0  0  0  0  0  0  0  0  0  0  0
   11.1863    0.9563  -17.1171 C   0  0  0  0  0  0  0  0  0  0  0  0
    9.8262   -0.8255  -18.2299 C   0  0  0  0  0  0  0  0  0  0  0  0
   10.3090   -0.2588  -16.9023 C   0  0  0  0  0  0  0  0  0  0  0  0
 19 20  1  0  0  0
 20 18  1  0  0  0
 18 17  1  0  0  0
 17 16  1  0  0  0
 16 15  1  0  0  0
 15 14  1  0  0  0
 14  1  1  0  0  0
  1  2  2  0  0  0
  2  3  1  0  0  0
  3  4  2  0  0  0
  4  5  1  0  0  0
  5  6  1  0  0  0
  6  7  2  0  0  0
  7  8  1  0  0  0
  8  9  1  0  0  0
  6 10  1  0  0  0
 10 11  2  0  0  0
 10 12  1  0  0  0
  9  1  1  0  0  0
 12  4  1  0  0  0
  9  5  2  0  0  0
 12 13  1  0  0  0
M  END
> <minimizedAffinity>
-5.35264

$$$$
